*  **********************************************
*  *             TSMC SPICE MODEL               *
*  **********************************************
*
*    PROCESS :  0.065um LOGIC SALICIDE Low-K IMD (1.0V) (CLN65GPLUS)
*    MODEL   :  BSIM4 ( V4.5 )
*    DOC. NO.:  T-N65-CL-SP-031-P1    
*    VERSION :  V1.0P1
*    DATE    :  May 30, 2006
*    HSPICE VERSION : Hspice 2006.03
*
******************************************************************************
*    Release Note:							     *
*                                                                            *
*    V0.1P1								     *
*    1.	Newly created based V0.1 target table.				     *
*    2. Passive model voltage and temperature coefficients are copied from   *
*	G model directly.						     *
*    3. All diode (except DNW diode) leakage saturation current, voltage and *
*       temperature coefficients are copied from G V1.0 model directly.	     *
*    4. DNW diode is copied directly from G V1.0 model			     *
*                                                                            *
*    V0.2P1								     *
*    1.	Modified Svt/Hvt/Lvt Ioff and Idsat corner. Ioff corner is reduced   *
*       about 50% for L=0.06um device at FF 25C corner.   		     *
*    2  Added 1.8V IO/Native, diode and varactor models. It is copied from   *
*       CLN65G 1.0/1.8 V1.0.                                                 * 
*									     *
*    V0.3P1								     *
*    1.	Modified 1.8V I/O NMOS targets. This impact on WPE and LOD effects   *
*       is minimum.                                                          *
*									     *
*    V1.0P1								     *
*    1.	Newly created with new target.					     *
******************************************************************************
* THIS MODEL LIB CONTAINS :                                                  *									
*                                                                            *									
*       1.LIB TT                                                             *									
*             SS                                                             *									
*             FF                                                             *									
*             SF                                                             *									
*             FS                                                             *									
*   ( 1.0V Standard-Vt devices with different geometric and corner models)   *									
*									     *
*       2.LIB TT_hvt                                                         *									
*             SS_hvt                                                         *									
*             FF_hvt                                                         *									
*             SF_hvt                                                         *									
*             FS_hvt                                                         *									
*   ( 1.0V High-Vt devices with different geometric and corner models)       *									
*									     *
*       3.LIB TT_lvt                                                         *									
*             SS_lvt                                                         *									
*             FF_lvt                                                         *									
*             SF_lvt                                                         *									
*             FS_lvt                                                         *									
*   ( 1.0V Low-Vt devices with different geometric and corner models)        *									
*									     *
*       4.LIB TT_18                                                          *									
*             SS_18                                                          *									
*             FF_18                                                          *									
*             SF_18                                                          *									
*             FS_18                                                          *									
*   ( 1.8V IO devices with different geometric and corner models)            *									
*									     *
*       5.LIB TT_na                                                          *									
*             SS_na                                                          *									
*             FF_na                                                          *									
*             SF_na                                                          *									
*             FS_na                                                          *									
*   ( 1.0V native devices with different geometric and corner models)        *									
*									     *
*       6.LIB TT_na18                                                        *									
*             SS_na18                                                        *									
*             FF_na18                                                        *									
*             SF_na18                                                        *									
*             FS_na18                                                        *									
*   ( 1.8V native devices with different geometric and corner models)        *									
*									     *                                                                            *                                                                            *
*       7.LIB  TT_BIP                                                        *									
*              SS_BIP                                                        *									
*              FF_BIP                                                        *									
*   ( 1.0V P+/NW/PSUB 10x10, 5x5, and 2x2 vertical PNP bipolar )             *
*                                                                            *									
*       8.LIB  TT_BIP_NPN                                                    *									
*              SS_BIP_NPN                                                    *									
*              FF_BIP_NPN                                                    *									
*   ( 1.0V N+/PW/DNW 10x10, 5x5, and 2x2 vertical NPN bipolar )              *									
*                                                                            *									
*       9.LIB  TT_DIO                                                        *									
*              SS_DIO                                                        *									
*              FF_DIO                                                        *		
*   ( 1.0V Standard-Vt P+/NW, N+/PW, NW/PSUB diode )		             *
*                                                                            *		
*       10.LIB TT_DIO_hvt                                                    *		
*              SS_DIO_hvt                                                    *		
*              FF_DIO_hvt                                                    *		
*   ( 1.0V High-Vt P+/NW, and N+/PW diode )                                  *		
*                                                                            *		
*       11.LIB TT_DIO_lvt                                                    *		
*              SS_DIO_lvt                                                    *		
*              FF_DIO_lvt                                                    *		
*   ( 1.0V Low-Vt P+/NW, and N+/PW diode )                                   *		
*                                                                            *		
*       12.LIB TT_DIO_18                                                     *		
*              SS_DIO_18                                                     *		
*              FF_DIO_18                                                     *		
*   ( 1.8V IO P+/NW, and N+/PW diode )                                       *		
*                                                                            *		
*       13.LIB TT_DIO_na                                                     *		
*              SS_DIO_na                                                     *		
*              FF_DIO_na                                                     *		
*   ( 1.0V native N+/PW diode )                                   	     *	
*                                                                            *
*       14.LIB TT_DIO_na18                                                   *
*              SS_DIO_na18                                                   *
*              FF_DIO_na18                                                   *
*   ( 1.8V native IO N+/PW diode )                                	     *
*                                                                            *
*       15.LIB RES                                                           *
*   ( Front-end and metal resistance )                                       *
*                                                                            *
*       16.LIB TT_MOS_CAP                                                    *
*              SS_MOS_CAP                                                    *
*              FF_MOS_CAP                                                    *
*   ( 1.0V Standard-Vt NMOS in N-Well varactor )                             *
*                                                                            *
*       17.LIB TT_MOS_CAP_18                                                 *
*              SS_MOS_CAP_18                                                 *
*              FF_MOS_CAP_18                                                 *
*   ( 1.8V IO NMOS in N-Well varactor )                                      *
*                                                                            *
*       18.LIB TT_DIO_DNW                                                    *
*              SS_DIO_DNW                                                    *
*              FF_DIO_DNW                                                    *
*    (  PW/DNW and DNW/PSUB diode  )                                         *
******************************************************************************
*
* NOTE:
*  1. All parasitics capacitances are removed from intrinsic model. The model only
*     covers the intrinsic MOSFET. All parasitic components will be handled by LPE.
*     For pre-layout simulation, contact-to-poly capacitance can be simulated by 
*     setting ccoflag=1.
*
*  2. Best approximation for gate resistance extraction is 1/3 of Rg, DC gate 
*     resistance. Current LPE tools extract gate resistors from gate edge to center 
*     of gate. Error of 1/2 Rg methodology is less than 5% when W/L < 30.  It is 
*     recommended to split wide gate transistor to meet W/L < 30 for high precision 
*     designs. For pre-layout simulation, Rg effect can be simulated by setting 
*     rgflag=1
*
*  3. The WPE (well proximity effect) is modeled in Bsim4.5. Please refer the Bsim4.5 
*     manual for model equation details. There are three new instance parameters 
*     SCA, SCB and SCC for post-layout WPE simulation. The number should be extracted
*     from LPE. For pre-layout simulation, the single instance parameter, SC (shortest 
*     distance between Well and OD shown below), is used as the only input for WPE 
*     simulation. BSIM4.5 model will calculate one set of SCA/B/C internally based 
*     on given SC to perform the simulation. 
*
*    ---------^------------------
*    |	   SC |	-----		|
*    |	    --v-|---|----	|
*    |	    | M	| O | S |	|
*    |	    ----|---|----	|
*    |		-----		|
*    |				|
*    |				|
*    |	well			|
*    -----------------------------
*
*  4. Sample netlist for BSIM4.5 WPE effect:
*     =========================
*     .temp 25.000
*     .lib 'CLN65GPLUS_1d8_lk_v1d0p1.l' TT_18
*     Vgs g 0 -1.8
*     Vbs b 0 0.000
*     Vss0 s0 0 0.000
*     Vds0 d0 0 -0.1
*     mdut0 d0 g s0 b pch_18 w=0.400u l=1.0000u sca=2.26 scb=2.01e-4 scc=4.42e-8
*     .op
*     .dc vgs 0.3 -1.80000 -0.010000
*     .measure dc vth_dut0 find v(g) when par('abs(i(Vss0))')="1e-7*0.4/1.0000"
*     .end
*
***********************************************************************************


.LIB post_simu
.param ccoflag=0
.param rgflag=0
.ENDL post_simu

.LIB post_simu_hvt
.param ccoflag_hvt=0
.param rgflag_hvt=0
.ENDL post_simu_hvt

.LIB post_simu_lvt
.param ccoflag_lvt=0
.param rgflag_lvt=0
.ENDL post_simu_lvt

.LIB post_simu_18
.param ccoflag_18=0
.param rgflag_18=0
.ENDL post_simu_18

.LIB post_simu_na
.param ccoflag_na=0
.param rgflag_na=0
.ENDL post_simu_na

.LIB post_simu_na18
.param ccoflag_na18=0
.param rgflag_na18=0
.ENDL post_simu_na18

***************************     LIBRARY OF TYPICAL CASE     ***************************
.LIB TT
.lib 'CLN65GPLUS_1d8_lk_v1d0p1.l' post_simu
.param
+toxp           = 2.2e-09       dxwp           = 0             dxlp           = 0
+dvthp          = 0             dlvthp         = 0             dwvthp         = 0
+dpvthp         = 0             cjp            = 1.0600e-03    cjswp          = 6.4000e-11
+cjswgp         = 2.5500e-10    cgop           = 4.42e-11      cglp           = 5.3375e-11
+ddlcp          = 5.9119e-09    cfp            = '1.2500e-10 + 4.5e-11*ccoflag' drdswp         = 0
+dnfactorp      = 0             dlnfactorp     = 0             dwnfactorp     = 0
+dpnfactorp     = 0             du0p           = 0             dlu0p          = 0
+dwu0p          = 0             dpu0p          = 0             deta0p         = 0
+dleta0p        = 0             dweta0p        = 0             dpeta0p        = 0
+dvsatp         = 0             dlvsatp        = 0             dwvsatp        = 0
+dpvsatp        = 0             ntoxp          = 1             dk2p           = 0
+dlk2p          = 0             dwk2p          = 0             dpk2p          = 0
+dagsp          = 0             dwagsp         = 0             dpclmp         = 0
+dla0p          = 0             dlagsp         = 0             dpagsp         = 0
+dwa0p          = 0             dpa0p          = 0             dcitp          = 0
+dlcitp         = 0             dwcitp         = 0             dpcitp         = 0
+dvoffp         = 0             dlvoffp        = 0             dwvoffp        = 0
+dpvoffp        = 0             da0p           = 0             jtsswgp        = 7.2e-10
+ff_flag        = 0             ss_flag        = 0             fs_flag        = 0
+sf_flag        = 0
+toxn           = 2e-09         dxwn           = 0             dxln           = 0
+dvthn          = 0             dlvthn         = 0             dwvthn         = 0
+dpvthn         = 0             cjn            = 1.2700e-03    cjswn          = 6.4000e-11
+cjswgn         = 3.0500e-10    cgon           = 6.8289e-11    cgln           = 7.2826e-12
+ddlcn          = 3.7851e-09    cfn            = '1.2500e-10 + 4.5e-11*ccoflag' drdswn         = 0
+dnfactorn      = 0             dlnfactorn     = 0             dwnfactorn     = 0
+dpnfactorn     = 0             du0n           = 0             dlu0n          = 0
+dwu0n          = 0             dpu0n          = 0             deta0n         = 0
+dleta0n        = 0             dweta0n        = 0             dpeta0n        = 0
+dvsatn         = 0             dlvsatn        = 0             dwvsatn        = 0
+dpvsatn        = 0             ntoxn          = 1             dk2n           = 0
+dlk2n          = 0             dwk2n          = 0             dpk2n          = 0
+dagsn          = 0             dpclmn         = 0             dppclmn        = 0
+dlcitn         = 0             dwcitn         = 0             dpcitn         = 0
+da0n           = 0             dla0n          = 0             dwa0n          = 0
+dpa0n          = 0             dvoffn         = 0             dlvoffn        = 0
+dwvoffn        = 0             dpvoffn        = 0             dkt1n          = 0
+dlkt1n         = 0             dwkt1n         = 0             dpkt1n         = 0
+dkt2n          = 0             dlkt2n         = 0             dwkt2n         = 0
+dpkt2n         = 0             dub1n          = 0             dlub1n         = 0
+dwub1n         = 0             dpub1n         = 0             dua1n          = 0
+dlua1n         = 0             dwua1n         = 0             dpua1n         = 0
+datn           = 0             dlatn          = 0             dpatn          = 0
+dwatn          = 0             dlagsn         = 0             dpagsn         = 0
.lib 'CLN65GPLUS_1d8_lk_v1d0p1.l' MOS
.ENDL TT

***************************     LIBRARY OF SNSP CORNER CASE     ***************************
.LIB SS
.lib 'CLN65GPLUS_1d8_lk_v1d0p1.l' post_simu
.param
+toxp           = 2.26e-09      dxwp           = -8e-09        dxlp           = 5e-09
+dvthp          = -0.03         dlvthp         = -1.4e-10      dwvthp         = -1.95e-09
+dpvthp         = -2.055e-16    cjp            = 1.1342e-03    cjswp          = 6.8480e-11
+cjswgp         = 2.7285e-10    cgop           = 4.1096e-11    cglp           = 4.9639e-11
+ddlcp          = 5.9119e-09    cfp            = '1.1625e-10 + 4.5e-11*ccoflag' drdswp         = 0
+dnfactorp      = 0             dlnfactorp     = 0             dwnfactorp     = 0
+dpnfactorp     = 0             du0p           = 0.00021       dlu0p          = 0
+dwu0p          = -3e-11        dpu0p          = 1.35e-18      deta0p         = 0.0057
+dleta0p        = 0             dweta0p        = 0             dpeta0p        = -8e-17
+dvsatp         = 0             dlvsatp        = 0             dwvsatp        = 0
+dpvsatp        = 0             ntoxp          = 0.52          dk2p           = 0
+dlk2p          = 0             dwk2p          = 1e-09         dpk2p          = -3e-17
+dagsp          = -0.06         dwagsp         = 5.1e-08       dpclmp         = 0
+dla0p          = 0             dlagsp         = -1e-07        dpagsp         = 2e-14
+dwa0p          = 0             dpa0p          = 0             dcitp          = 0
+dlcitp         = 0             dwcitp         = 0             dpcitp         = 0
+dvoffp         = 0             dlvoffp        = 0             dwvoffp        = 0
+dpvoffp        = 0             da0p           = 0             jtsswgp        = 7.2e-10
+ff_flag        = 0             ss_flag        = 1             fs_flag        = 0
+sf_flag        = 0
+toxn           = 2.06e-09      dxwn           = -8e-09        dxln           = 5e-09
+dvthn          = 0.0270        dlvthn         = 9.5e-10       dwvthn         = 1.3e-09
+dpvthn         = 1.9e-16       cjn            = 1.3589e-03    cjswn          = 6.8480e-11
+cjswgn         = 3.2635e-10    cgon           = 6.3508e-11    cgln           = 6.7728e-12
+ddlcn          = 3.7851e-09    cfn            = '1.1625e-10 + 4.5e-11*ccoflag' drdswn         = -5
+dnfactorn      = 0             dlnfactorn     = 0             dwnfactorn     = 0
+dpnfactorn     = 0             du0n           = 0             dlu0n          = 0
+dwu0n          = 0             dpu0n          = 0             deta0n         = -0.01
+dleta0n        = 2.2e-09       dweta0n        = 0             dpeta0n        = -2e-16
+dvsatn         = 0             dlvsatn        = 0.00029       dwvsatn        = 0
+dpvsatn        = 5e-11         ntoxn          = 0.82          dk2n           = 0.011
+dlk2n          = -5e-11        dwk2n          = 1.8e-09       dpk2n          = 8.5e-17
+dagsn          = 0.05          dpclmn         = 0             dppclmn        = 0
+dlcitn         = 0             dwcitn         = 0             dpcitn         = 0
+da0n           = 0             dla0n          = 0             dwa0n          = 0
+dpa0n          = 0             dvoffn         = 0             dlvoffn        = 0
+dwvoffn        = 0             dpvoffn        = 0             dkt1n          = 0
+dlkt1n         = -2e-10        dwkt1n         = 0             dpkt1n         = 0
+dkt2n          = 0             dlkt2n         = 0             dwkt2n         = 0
+dpkt2n         = 0             dub1n          = 0             dlub1n         = 0
+dwub1n         = 0             dpub1n         = 0             dua1n          = 0
+dlua1n         = 0             dwua1n         = 0             dpua1n         = 0
+datn           = 0             dlatn          = 0.00025       dpatn          = 6e-11
+dwatn          = 0             dlagsn         = 1.2e-07       dpagsn         = 0
.lib 'CLN65GPLUS_1d8_lk_v1d0p1.l' MOS
.ENDL SS

***************************     LIBRARY OF FNFP CORNER CASE     ***************************
.LIB FF
.lib 'CLN65GPLUS_1d8_lk_v1d0p1.l' post_simu
.param
+toxp           = 2.14e-09      dxwp           = 8e-09         dxlp           = -5e-09
+dvthp          = 0.0288        dlvthp         = 5.5e-10       dwvthp         = 3.1e-09
+dpvthp         = 1.71e-16      cjp            = 9.8580e-04    cjswp          = 5.9520e-11
+cjswgp         = 2.3715e-10    cgop           = 4.7283e-11    cglp           = 5.7111e-11
+ddlcp          = 5.9119e-09    cfp            = '1.3375e-10 + 4.5e-11*ccoflag' drdswp         = 0
+dnfactorp      = 0             dlnfactorp     = 0             dwnfactorp     = 0
+dpnfactorp     = 0             du0p           = -0.00012      dlu0p          = -7e-12
+dwu0p          = 3e-11         dpu0p          = -1.3e-18      deta0p         = -0.1
+dleta0p        = 2.8e-09       dweta0p        = 4.7e-08       dpeta0p        = -1.75e-15
+dvsatp         = -3000         dlvsatp        = 0             dwvsatp        = 0
+dpvsatp        = 0             ntoxp          = 1.39          dk2p           = 0
+dlk2p          = 0             dwk2p          = -1e-09        dpk2p          = 3e-17
+dagsp          = -0.06         dwagsp         = -4e-08        dpclmp         = 0
+dla0p          = 0             dlagsp         = 0             dpagsp         = 0
+dwa0p          = 0             dpa0p          = 0             dcitp          = 0.0003
+dlcitp         = 1.5e-11       dwcitp         = 0             dpcitp         = 0
+dvoffp         = 0             dlvoffp        = 0             dwvoffp        = 0
+dpvoffp        = 0             da0p           = 0             jtsswgp        = 7.2e-10
+ff_flag        = 1             ss_flag        = 0             fs_flag        = 0
+sf_flag        = 0
+toxn           = 1.94e-09      dxwn           = 8e-09         dxln           = -5e-09
+dvthn          = -0.0285       dlvthn         = -7.5e-10      dwvthn         = -0.5e-09
+dpvthn         = -2.05e-16     cjn            = 1.1811e-03    cjswn          = 5.9520e-11
+cjswgn         = 2.8365e-10    cgon           = 7.3069e-11    cgln           = 7.7923e-12
+ddlcn          = 3.7851e-09    cfn            = '1.3375e-10 + 4.5e-11*ccoflag' drdswn         = 0
+dnfactorn      = 0             dlnfactorn     = 0             dwnfactorn     = 0
+dpnfactorn     = 0             du0n           = 0             dlu0n          = -3e-12
+dwu0n          = 0             dpu0n          = 0             deta0n         = 0
+dleta0n        = -1.5e-09      dweta0n        = 0             dpeta0n        = 2.85e-16
+dvsatn         = 0             dlvsatn        = -0.0002      dwvsatn        = 0
+dpvsatn        = -6.5e-11      ntoxn          = 1.16          dk2n           = -0.013
+dlk2n          = 0             dwk2n          = -1.9e-09      dpk2n          = -1.2e-16
+dagsn          = 0            dpclmn         = 0              dppclmn        = 0
+dlcitn         = 0             dwcitn         = 0             dpcitn         = 0
+da0n           = 0             dla0n          = 0             dwa0n          = 0
+dpa0n          = 0             dvoffn         = 0             dlvoffn        = 0
+dwvoffn        = 0             dpvoffn        = 0             dkt1n          = 0
+dlkt1n         = 2e-10         dwkt1n         = 0             dpkt1n         = 0
+dkt2n          = 0.01          dlkt2n         = 0             dwkt2n         = 0
+dpkt2n         = 0             dub1n          = 0             dlub1n         = 0
+dwub1n         = 0             dpub1n         = 0             dua1n          = 0
+dlua1n         = 0             dwua1n         = 0             dpua1n         = 0
+datn           = 0             dlatn          = -0.00025      dpatn          = -6e-11
+dwatn          = 0             dlagsn         = -0.5e-07      dpagsn         = 1.7e-14
.lib 'CLN65GPLUS_1d8_lk_v1d0p1.l' MOS
.ENDL FF

***************************     LIBRARY OF SNFP CORNER CASE     ***************************
.LIB SF
.lib 'CLN65GPLUS_1d8_lk_v1d0p1.l' post_simu
.param
+A1N=0.8 A1P=-0.8 A2N=0 A2P=0 A3N=-1 A3P=1 A4NP=0
+toxp = '2.2e-09 + 6.0000e-11*A4NP'      dxwp = '8e-09*A3P'                      dxlp = '5e-09*A2P'
+dvthp = '-0.0288*A1P'                   dlvthp = '-5.5e-10*A1P'                 dwvthp = '-3.1e-09*A1P'
+dpvthp = '-1.71e-16*A1P'                cjp = '1.0600e-03 * (1+0.070*A1P)'      cjswp = '6.4000e-11 * (1+0.070*A1P)'
+cjswgp = '2.5500e-10 * (1+0.070*A1P)'   cgop = '4.42e-11 * (1-0.070*A4NP)'      cglp = '5.3375e-11 * (1-0.070*A4NP)'
+ddlcp = 5.9119e-09
+cfp = '1.2500e-10*(1-0.070*A4NP)+4.5e-11*ccoflag'
+drdswp = 0                              dnfactorp = 0                           dlnfactorp = 0
+dwnfactorp = 0                          dpnfactorp = 0                          du0p = '0.00012*A1P'
+dlu0p = '7e-12*A1P'                     dwu0p = '-3e-11*A1P'                    dpu0p = '1.3e-18*A1P'
+deta0p = '0.1*A1P'                      dleta0p = '-2.8e-09*A1P'                dweta0p = '-4.7e-08*A1P'
+dpeta0p = '1.75e-15*A1P*1.1'            dvsatp = '3000*A1P'                     dlvsatp = 0
+dwvsatp = 0                             dpvsatp = 0                             ntoxp = '1 + -3.9000e-01*A4NP'
+dk2p = 0                                dlk2p = 0                               dwk2p = '1e-09*A1P'
+dpk2p = '-1.5e-17*A1P'                  dagsp = '0.06*A1P'                      dwagsp = '4e-08*A1P'
+dpclmp = 0                              dla0p = 0                               dlagsp = 0
+dpagsp = 0                              dwa0p = 0                               dpa0p = 0
+dcitp = '-0.0003*A1P'                   dlcitp = '-1.5e-11*A1P'                 dwcitp = 0
+dpcitp = 0                              dvoffp = 0                              dlvoffp = 0
+dwvoffp = 0                             dpvoffp = 0                             da0p = 0
+jtsswgp = 7.2e-10                       ff_flag = 0                             ss_flag = 0
+fs_flag = 0                             sf_flag = 1
+toxn = '2e-09 + 6.0000e-11*A4NP'        dxwn = '8e-09*A3N'                      dxln = '5e-09*A2N'
+dvthn = '0.0285*A1N'                    dlvthn = '7.5e-10*A1N'                  dwvthn = '5e-10*A1N'
+dpvthn = '2.05e-16*A1N'                 cjn = '1.2700e-03 * (1+0.070*A1N)'      cjswn = '6.4000e-11 * (1+0.070*A1N)'
+cjswgn = '3.0500e-10 * (1+0.070*A1N)'   cgon = '6.8289e-11 * (1-0.070*A4NP)'    cgln = '7.2826e-12 * (1-0.070*A4NP)'
+ddlcn = 3.7851e-09
+cfn = '1.2500e-10*(1-0.070*A4NP)+4.5e-11*ccoflag'
+drdswn = 0                              dnfactorn = 0                           dlnfactorn = 0
+dwnfactorn = 0                          dpnfactorn = 0                          du0n = 0
+dlu0n = '3e-12*A1N'                     dwu0n = 0                               dpu0n = 0
+deta0n = 0                              dleta0n = '1.5e-09*A1N'                 dweta0n = 0
+dpeta0n = '-2.85e-16*A1N'               dvsatn = 0                              dlvsatn = '0.0002*A1N'
+dwvsatn = 0                             dpvsatn = '6.5e-11*A1N'                 ntoxn = '1 + -1.6000e-01*A4NP'
+dk2n = '0.013*A1N'                      dlk2n = 0                               dwk2n = '1.9e-09*A1N'
+dpk2n = '1.2e-16*A1N'                   dagsn = '0.05*A1N'                      dpclmn = 0
+dppclmn = 0                             dlcitn = 0                              dwcitn = 0
+dpcitn = 0                              da0n = 0                                dla0n = 0
+dwa0n = 0                               dpa0n = 0                               dvoffn = 0
+dlvoffn = 0                             dwvoffn = 0                             dpvoffn = 0
+dkt1n = 0                               dlkt1n = '-2e-10*A1N'                   dwkt1n = 0
+dpkt1n = 0                              dkt2n = 0                               dlkt2n = 0
+dwkt2n = 0                              dpkt2n = 0                              dub1n = 0
+dlub1n = 0                              dwub1n = 0                              dpub1n = 0
+dua1n = 0                               dlua1n = 0                              dwua1n = 0
+dpua1n = 0                              datn = 0                                dlatn = '0.00025*A1N'
+dpatn = '6e-11*A1N'                     dwatn = 0                               dlagsn = '0.5e-07*A1N'
+dpagsn          = '-1.7e-14*A1N' 
.lib 'CLN65GPLUS_1d8_lk_v1d0p1.l' MOS
.ENDL SF

***************************     LIBRARY OF FNSP CORNER CASE     ***************************
.LIB FS
.lib 'CLN65GPLUS_1d8_lk_v1d0p1.l' post_simu
.param
+A1N=-0.8 A1P=0.8 A2N=0 A2P=0 A3N=1 A3P=-1 A4NP=0
+toxp = '2.2e-09 + 6.0000e-11*A4NP'      dxwp = '8e-09*A3P'                      dxlp = '5e-09*A2P'
+dvthp = '-0.0288*A1P'                   dlvthp = '-5.5e-10*A1P'                 dwvthp = '-3.1e-09*A1P'
+dpvthp = '-1.71e-16*A1P'                cjp = '1.0600e-03 * (1+0.070*A1P)'      cjswp = '6.4000e-11 * (1+0.070*A1P)'
+cjswgp = '2.5500e-10 * (1+0.070*A1P)'   cgop = '4.42e-11 * (1-0.070*A4NP)'      cglp = '5.3375e-11 * (1-0.070*A4NP)'
+ddlcp = 5.9119e-09
+cfp = '1.2500e-10*(1-0.070*A4NP)+4.5e-11*ccoflag'
+drdswp = 0                              dnfactorp = 0                           dlnfactorp = 0
+dwnfactorp = 0                          dpnfactorp = 0                          du0p = '0.00012*A1P'
+dlu0p = '7e-12*A1P'                     dwu0p = '-3e-11*A1P'                    dpu0p = '1.3e-18*A1P'
+deta0p = '0.1*A1P'                      dleta0p = '-2.8e-09*A1P'                dweta0p = '-2.0e-08*A1P'
+dpeta0p = '1.75e-15*A1P*0.5'            dvsatp = '3000*A1P'                     dlvsatp = 0
+dwvsatp = 0                             dpvsatp = 0                             ntoxp = '1 + -3.9000e-01*A4NP'
+dk2p = 0                                dlk2p = 0                               dwk2p = '1e-09*A1P'
+dpk2p = '-0e-17*A1P'                    dagsp = '0.06*A1P'                      dwagsp = '4e-08*A1P'
+dpclmp = 0                              dla0p = 0                               dlagsp = 0
+dpagsp = 0                              dwa0p = 0                               dpa0p = 0
+dcitp = '-0.0003*A1P'                   dlcitp = '-1.5e-11*A1P'                 dwcitp = 0
+dpcitp = 0                              dvoffp = 0                              dlvoffp = 0
+dwvoffp = 0                             dpvoffp = 0                             da0p = 0
+jtsswgp = 7.2e-10                       ff_flag = 0                             ss_flag = 0
+fs_flag = 1                             sf_flag = 0
+toxn = '2e-09 + 6.0000e-11*A4NP'        dxwn = '8e-09*A3N'                      dxln = '5e-09*A2N'
+dvthn = '0.0285*A1N'                    dlvthn = '7.5e-10*A1N'                  dwvthn = '5e-10*A1N'
+dpvthn = '2.05e-16*A1N'                 cjn = '1.2700e-03 * (1+0.070*A1N)'      cjswn = '6.4000e-11 * (1+0.070*A1N)'
+cjswgn = '3.0500e-10 * (1+0.070*A1N)'   cgon = '6.8289e-11 * (1-0.070*A4NP)'    cgln = '7.2826e-12 * (1-0.070*A4NP)'
+ddlcn = 3.7851e-09
+cfn = '1.2500e-10*(1-0.070*A4NP)+4.5e-11*ccoflag'
+drdswn = 0                              dnfactorn = 0                           dlnfactorn = 0
+dwnfactorn = 0                          dpnfactorn = 0                          du0n = 0
+dlu0n = '3e-12*A1N'                     dwu0n = 0                               dpu0n = 0
+deta0n = 0                              dleta0n = '1.5e-09*A1N'                 dweta0n = 0
+dpeta0n = '-2.85e-16*A1N'               dvsatn = 0                              dlvsatn = '0.0002*A1N'
+dwvsatn = 0                             dpvsatn = '6.5e-11*A1N'                 ntoxn = '1 + -1.6000e-01*A4NP'
+dk2n = '0.013*A1N'                      dlk2n = 0                               dwk2n = '1.9e-09*A1N'
+dpk2n = '1.2e-16*A1N'                   dagsn = '0.05*A1N'                      dpclmn = 0
+dppclmn = 0                             dlcitn = 0                              dwcitn = 0
+dpcitn = 0                              da0n = 0                                dla0n = 0
+dwa0n = 0                               dpa0n = 0                               dvoffn = 0
+dlvoffn = 0                             dwvoffn = 0                             dpvoffn = 0
+dkt1n = 0                               dlkt1n = '-2e-10*A1N'                   dwkt1n = 0
+dpkt1n = 0                              dkt2n = 0                               dlkt2n = 0
+dwkt2n = 0                              dpkt2n = 0                              dub1n = 0
+dlub1n = 0                              dwub1n = 0                              dpub1n = 0
+dua1n = 0                               dlua1n = 0                              dwua1n = 0
+dpua1n = 0                              datn = 0                                dlatn = '0.00025*A1N'
+dpatn = '6e-11*A1N'                     dwatn = 0                               dlagsn = '0.5e-07*A1N'
+dpagsn          = '-1.7e-14*A1N' 
.lib 'CLN65GPLUS_1d8_lk_v1d0p1.l' MOS
.ENDL FS

***************************     LIBRARY OF TYPICAL CASE     ***************************
.LIB TT_hvt
.lib 'CLN65GPLUS_1d8_lk_v1d0p1.l' post_simu_hvt
.param
+toxn_hvt       = 2e-09         dxln_hvt       = 0             dxwn_hvt       = 0
+cjn_hvt        = 1.32969E-03   cjswn_hvt      = 6.68996E-11   cjswgn_hvt     = 3.35356E-10
+cgon_hvt       = 6.216940E-11  cgln_hvt       = 1.255870E-11  ddlcn_hvt      = 3.974830E-09
+ntoxn_hvt      = 1             cfn_hvt        = '1.25e-10 + 4.5e-11*ccoflag_hvt' dvthn_hvt      = 0
+dlvthn_hvt     = 0             dwvthn_hvt     = 0             dpvthn_hvt     = 0
+dk2n_hvt       = 0             dlk2n_hvt      = 0             dwk2n_hvt      = 0
+dpk2n_hvt      = 0             dcitn_hvt      = 0             dlcitn_hvt     = 0
+dwcitn_hvt     = 0             dpcitn_hvt     = 0             dnfactorn_hvt  = 0
+dlnfactorn_hvt = 0             dwnfactorn_hvt = 0             dpnfactorn_hvt = 0
+dvoffn_hvt     = 0             dlvoffn_hvt    = 0             dwvoffn_hvt    = 0
+dpvoffn_hvt    = 0             dpclmn_hvt     = 0             dlpclmn_hvt    = 0
+dwpclmn_hvt    = 0             dppclmn_hvt    = 0             dvsatn_hvt     = 0
+dlvsatn_hvt    = 0             dwvsatn_hvt    = 0             dpvsatn_hvt    = 0
+deta0n_hvt     = 0             dleta0n_hvt    = 0             dweta0n_hvt    = 0
+dpeta0n_hvt    = 0             du0n_hvt       = 0             dlu0n_hvt      = 0
+dwu0n_hvt      = 0             dpu0n_hvt      = 0             dagsn_hvt      = 0
+dlagsn_hvt     = 0             dwagsn_hvt     = 0             dpagsn_hvt     = 0
+da0n_hvt       = 0             dla0n_hvt      = 0             dwa0n_hvt      = 0
+dpa0n_hvt      = 0             dlatn_hvt      = 0             dluc1n_hvt     = 0
+dlub1n_hvt     = 0             dpatn_hvt      = 0             dpkt1n_hvt     = 0
+ss_flag_hvt    = 0             ff_flag_hvt    = 0             sf_flag_hvt    = 0
+fs_flag_hvt    = 0
+toxp_hvt       = 2.2e-09       dxlp_hvt       = 0             dxwp_hvt       = 0
+cjp_hvt        = 1.0800E-03    cjswp_hvt      = 6.4000E-11    cjswgp_hvt     = 3.0500E-10
+cgop_hvt       = 4.043640E-11  cglp_hvt       = 3.702200E-11  ddlcp_hvt      = 4.585530E-09
+cfp_hvt        = '1.25e-10 + 4.5e-11*ccoflag_hvt' ntoxp_hvt      = 1             drdswp_hvt     = 0
+dvthp_hvt      = 0             dlvthp_hvt     = 0             dwvthp_hvt     = 0
+dpvthp_hvt     = 0             dvsatp_hvt     = 0             dlvsatp_hvt    = 0
+dwvsatp_hvt    = 0             dpvsatp_hvt    = 0             deta0p_hvt     = 0
+dleta0p_hvt    = 0             dweta0p_hvt    = 0             dpeta0p_hvt    = 0
+dk2p_hvt       = 0             dlk2p_hvt      = 0             dwk2p_hvt      = 0
+dpk2p_hvt      = 0             dnfactorp_hvt  = 0             dlnfactorp_hvt = 0
+dwnfactorp_hvt = 0             dpnfactorp_hvt = 0             dvoffp_hvt     = 0
+dlvoffp_hvt    = 0             dwvoffp_hvt    = 0             dpvoffp_hvt    = 0
+dpclmp_hvt     = 0             dlpclmp_hvt    = 0             dwpclmp_hvt    = 0
+dppclmp_hvt    = 0             du0p_hvt       = 0             dlu0p_hvt      = 0
+dwu0p_hvt      = 0             dpu0p_hvt      = 0             dcitp_hvt      = 0
+dlcitp_hvt     = 0             dwcitp_hvt     = 0             dpcitp_hvt     = 0
+dagsp_hvt      = 0             dlagsp_hvt     = 0             dwagsp_hvt     = 0
+dpagsp_hvt     = 0             da0p_hvt       = 0             dla0p_hvt      = 0
+dwa0p_hvt      = 0             dpa0p_hvt      = 0             datp_hvt       = 0
+dub1p_hvt      = 0             dlub1p_hvt     = 0             dua1p_hvt      = 0
+dlua1p_hvt     = 0             duc1p_hvt      = 0             dluc1p_hvt     = 0
.lib 'CLN65GPLUS_1d8_lk_v1d0p1.l' MOS_hvt
.ENDL TT_hvt

***************************     LIBRARY OF SNSP CORNER CASE     ***************************
.LIB SS_hvt
.lib 'CLN65GPLUS_1d8_lk_v1d0p1.l' post_simu_hvt
.param
+toxn_hvt       = 2.06e-09      dxln_hvt       = 5e-09         dxwn_hvt       = -8e-09
+cjn_hvt        = 1.42277E-03   cjswn_hvt      = 7.15826E-11   cjswgn_hvt     = 3.58831E-10
+cgon_hvt       = 5.78175E-11   cgln_hvt       = 1.16796E-11   ddlcn_hvt      = 3.97483E-09
+ntoxn_hvt      = 0.81          cfn_hvt        = '1.163e-10 + 4.5e-11*ccoflag_hvt' dvthn_hvt      = 0.0178
+dlvthn_hvt     = 1.4e-9        dwvthn_hvt     = 2.9e-09       dpvthn_hvt     = 1.68e-16
+dk2n_hvt       = -0.0017       dlk2n_hvt      = 6e-10         dwk2n_hvt      = 6e-10
+dpk2n_hvt      = 0             dcitn_hvt      = 0             dlcitn_hvt     = 0.28e-10
+dwcitn_hvt     = 0             dpcitn_hvt     = 0.3e-17       dnfactorn_hvt  = 0
+dlnfactorn_hvt = 0             dwnfactorn_hvt = 0             dpnfactorn_hvt = 0
+dvoffn_hvt     = 0             dlvoffn_hvt    = -2.20e-10     dwvoffn_hvt    = 3.3e-10
+dpvoffn_hvt    = 0.35e-16      dpclmn_hvt     = 0             dlpclmn_hvt    = 0
+dwpclmn_hvt    = 0             dppclmn_hvt    = 0             dvsatn_hvt     = 0
+dlvsatn_hvt    = 0.00045       dwvsatn_hvt    = 0             dpvsatn_hvt    = 1.8e-11
+deta0n_hvt     = 0             dleta0n_hvt    = 4e-10         dweta0n_hvt    = 0
+dpeta0n_hvt    = -0.5e-16      du0n_hvt       = 0             dlu0n_hvt      = 2.6e-12
+dwu0n_hvt      = 0.5e-11       dpu0n_hvt      = 2.5e-18       dagsn_hvt      = 0.15
+dlagsn_hvt     = 0             dwagsn_hvt     = 1.5e-8        dpagsn_hvt     = 0
+da0n_hvt       = 0             dla0n_hvt      = 0             dwa0n_hvt      = 0
+dpa0n_hvt      = 0             dlatn_hvt      = 1.8e-3        dluc1n_hvt     = -0.08e-16
+dlub1n_hvt     = 0             dpatn_hvt      = 0             dpkt1n_hvt     = 0
+ss_flag_hvt    = 1             ff_flag_hvt    = 0             sf_flag_hvt    = 0
+fs_flag_hvt    = 0
+toxp_hvt       = 2.26e-09      dxlp_hvt       = 5e-09         dxwp_hvt       = -8e-09
+cjp_hvt        = 1.1556E-03    cjswp_hvt      = 6.8480E-11    cjswgp_hvt     = 3.2635E-10
+cgop_hvt       = 3.76059E-11   cglp_hvt       = 3.44305E-11   ddlcp_hvt      = 4.58553E-09
+cfp_hvt        = '1.163e-10 + 4.5e-11*ccoflag_hvt' ntoxp_hvt      = 0.54          drdswp_hvt     = 0
+dvthp_hvt      = -0.0270       dlvthp_hvt     = -1.6e-10      dwvthp_hvt     = -4.6e-9
+dpvthp_hvt     = -1.72e-16     dvsatp_hvt     = 1000          dlvsatp_hvt    = -0.00029
+dwvsatp_hvt    = 0             dpvsatp_hvt    = 12.1e-11      deta0p_hvt     = 0
+dleta0p_hvt    = 9e-10         dweta0p_hvt    = 0             dpeta0p_hvt    = 7e-17
+dk2p_hvt       = 0             dlk2p_hvt      = 5.5e-10       dwk2p_hvt      = 5.5e-10
+dpk2p_hvt      = 0             dnfactorp_hvt  = 0             dlnfactorp_hvt = 0
+dwnfactorp_hvt = 0             dpnfactorp_hvt = 0             dvoffp_hvt     = 0
+dlvoffp_hvt    = 1.7e-10       dwvoffp_hvt    = 5.5e-10       dpvoffp_hvt    = -2.0e-17
+dpclmp_hvt     = 0             dlpclmp_hvt    = 0             dwpclmp_hvt    = 0
+dppclmp_hvt    = 0             du0p_hvt       = 0.00019       dlu0p_hvt      = 7.3e-12
+dwu0p_hvt      = -0.5e-11      dpu0p_hvt      = -2.8e-18      dcitp_hvt      = 0
+dlcitp_hvt     = -2.0e-11      dwcitp_hvt     = 0             dpcitp_hvt     = 0.3e-17
+dagsp_hvt      = 0             dlagsp_hvt     = 1.2e-7        dwagsp_hvt     = 8.1e-8
+dpagsp_hvt     = 0             da0p_hvt       = 0             dla0p_hvt      = 0
+dwa0p_hvt      = 5.8e-8        dpa0p_hvt      = 0             datp_hvt       = 0
+dub1p_hvt      = 0             dlub1p_hvt     = 0             dua1p_hvt      = 0.3e-9
+dlua1p_hvt     = 0             duc1p_hvt      = 0             dluc1p_hvt     = 0
.lib 'CLN65GPLUS_1d8_lk_v1d0p1.l' MOS_hvt
.ENDL SS_hvt

***************************     LIBRARY OF FNFP CORNER CASE     ***************************
.LIB FF_hvt
.lib 'CLN65GPLUS_1d8_lk_v1d0p1.l' post_simu_hvt
.param
+toxn_hvt       = 1.94e-09      dxln_hvt       = -5e-09        dxwn_hvt       = 8e-09
+cjn_hvt        = 1.23661E-03   cjswn_hvt      = 6.22166E-11   cjswgn_hvt     = 3.11881E-10
+cgon_hvt       = 6.65213E-11   cgln_hvt       = 1.34378E-11   ddlcn_hvt      = 3.97483E-09
+ntoxn_hvt      = 1.22          cfn_hvt        = '1.338e-10 + 4.5e-11*ccoflag_hvt' dvthn_hvt      = -0.0174
+dlvthn_hvt     = -1.2e-9       dwvthn_hvt     = -3.4e-09      dpvthn_hvt     = -1.68e-16
+dk2n_hvt       = 0.0013        dlk2n_hvt      = -6e-10        dwk2n_hvt      = -6e-10
+dpk2n_hvt      = -3e-17        dcitn_hvt      = 0             dlcitn_hvt     = -0.3e-10
+dwcitn_hvt     = 0             dpcitn_hvt     = -0.1e-17      dnfactorn_hvt  = 0
+dlnfactorn_hvt = 0             dwnfactorn_hvt = 0             dpnfactorn_hvt = 0
+dvoffn_hvt     = 0             dlvoffn_hvt    = 2.49e-10      dwvoffn_hvt    = -3.3e-10
+dpvoffn_hvt    = -0.38e-16     dpclmn_hvt     = 0             dlpclmn_hvt    = 0
+dwpclmn_hvt    = 0             dppclmn_hvt    = 0             dvsatn_hvt     = 0
+dlvsatn_hvt    = -0.00037      dwvsatn_hvt    = 0             dpvsatn_hvt    = -1.72e-11
+deta0n_hvt     = 0             dleta0n_hvt    = -4e-10        dweta0n_hvt    = 0
+dpeta0n_hvt    = 1.0e-16       du0n_hvt       = 0             dlu0n_hvt      = 1.8e-12
+dwu0n_hvt      = 0.3e-11       dpu0n_hvt      = -0.8e-18      dagsn_hvt      = -0.20
+dlagsn_hvt     = 0             dwagsn_hvt     = -2.5e-8       dpagsn_hvt     = 0
+da0n_hvt       = 0             dla0n_hvt      = 0             dwa0n_hvt      = 0
+dpa0n_hvt      = 0             dlatn_hvt      = 0             dluc1n_hvt     = 0
+dlub1n_hvt     = 0             dpatn_hvt      = 0             dpkt1n_hvt     = 0
+ss_flag_hvt    = 0             ff_flag_hvt    = 1             sf_flag_hvt    = 0
+fs_flag_hvt    = 0
+toxp_hvt       = 2.14e-09      dxlp_hvt       = -5e-09        dxwp_hvt       = 8e-09
+cjp_hvt        = 1.0044E-03    cjswp_hvt      = 5.9520E-11    cjswgp_hvt     = 2.8365E-10
+cgop_hvt       = 4.32669E-11   cglp_hvt       = 3.96135E-11   ddlcp_hvt      = 4.58553E-09
+cfp_hvt        = '1.338e-10 + 4.5e-11*ccoflag_hvt' ntoxp_hvt      = 1.38          drdswp_hvt     = 0
+dvthp_hvt      = 0.0272        dlvthp_hvt     = 0.5e-10       dwvthp_hvt     = 5.9e-9
+dpvthp_hvt     = 1.76e-16      dvsatp_hvt     = 0             dlvsatp_hvt    = -0.00004
+dwvsatp_hvt    = 0             dpvsatp_hvt    = -1.5e-11      deta0p_hvt     = 0
+dleta0p_hvt    = -9e-10        dweta0p_hvt    = 0             dpeta0p_hvt    = -8e-17
+dk2p_hvt       = 0             dlk2p_hvt      = -5.5e-10      dwk2p_hvt      = -5.5e-10
+dpk2p_hvt      = 0             dnfactorp_hvt  = 0             dlnfactorp_hvt = 0
+dwnfactorp_hvt = 0             dpnfactorp_hvt = 0             dvoffp_hvt     = 0
+dlvoffp_hvt    = -2.9e-10      dwvoffp_hvt    = -0.5e-10      dpvoffp_hvt    = -1.2e-17
+dpclmp_hvt     = 0             dlpclmp_hvt    = 0             dwpclmp_hvt    = 0
+dppclmp_hvt    = 0             du0p_hvt       = -0.00005      dlu0p_hvt      = -6.5e-12
+dwu0p_hvt      = 0.5e-11       dpu0p_hvt      = 3.0e-18       dcitp_hvt      = 0
+dlcitp_hvt     = 3.6e-11       dwcitp_hvt     = 0             dpcitp_hvt     = 0.4e-17
+dagsp_hvt      = -0.25         dlagsp_hvt     = 0             dwagsp_hvt     = -5.5e-8
+dpagsp_hvt     = 0             da0p_hvt       = 0             dla0p_hvt      = 0.6e-7
+dwa0p_hvt      = 1.8e-8        dpa0p_hvt      = 3.0e-14       datp_hvt       = 0
+dub1p_hvt      = 0             dlub1p_hvt     = 0             dua1p_hvt      = 0
+dlua1p_hvt     = 0             duc1p_hvt      = 0             dluc1p_hvt     = 0
.lib 'CLN65GPLUS_1d8_lk_v1d0p1.l' MOS_hvt
.ENDL FF_hvt

***************************     LIBRARY OF SNFP CORNER CASE     ***************************
.LIB SF_hvt
.lib 'CLN65GPLUS_1d8_lk_v1d0p1.l' post_simu_hvt
.param
+A1N_hvt=0.8 A1P_hvt=-0.8 A2N_hvt=0 A2P_hvt=0 A3N_hvt=-1 A3P_hvt=1 A4NP_hvt=0
+toxn_hvt = '2e-09 + 6.0000e-11*A4NP_hvt'          dxln_hvt = '5e-09*A2N_hvt'                        dxwn_hvt = '8e-09*A3N_hvt'
+cjn_hvt = '1.32969E-03 * (1+0.070*A1N_hvt)'       cjswn_hvt = '6.68996E-11 * (1+0.070*A1N_hvt)'     cjswgn_hvt = '3.35356E-10 * (1+0.070*A1N_hvt)'
+cgon_hvt = '6.216940E-11 * (1-0.070*A4NP_hvt)'    cgln_hvt = '1.255870E-11 * (1-0.070*A4NP_hvt)'    ddlcn_hvt = '3.974830E-09 + 0.0000e+00*A1N_hvt'
+ntoxn_hvt = '1 + -2.2000e-01*A4NP_hvt'
+cfn_hvt = '1.25e-10*(1-0.070*A4NP_hvt)+4.5e-11*ccoflag_hvt'
+dvthn_hvt = '0.0174*A1N_hvt'                      dlvthn_hvt = '1.2e-09*A1N_hvt'                    dwvthn_hvt = '3.4e-09*A1N_hvt'
+dpvthn_hvt = '1.68e-16*A1N_hvt'                   dk2n_hvt = '-0.0013*A1N_hvt'                      dlk2n_hvt = '6e-10*A1N_hvt'
+dwk2n_hvt = '6e-10*A1N_hvt'                       dpk2n_hvt = '3e-17*A1N_hvt'                       dcitn_hvt = 0
+dlcitn_hvt = '3e-11*A1N_hvt'                      dwcitn_hvt = 0                                    dpcitn_hvt = '1e-18*A1N_hvt'
+dnfactorn_hvt = 0                                 dlnfactorn_hvt = 0                                dwnfactorn_hvt = 0
+dpnfactorn_hvt = 0                                dvoffn_hvt = 0                                    dlvoffn_hvt = '-2.49e-10*A1N_hvt'
+dwvoffn_hvt = '3.3e-10*A1N_hvt'                   dpvoffn_hvt = '3.8e-17*A1N_hvt'                   dpclmn_hvt = 0
+dlpclmn_hvt = 0                                   dwpclmn_hvt = 0                                   dppclmn_hvt = 0
+dvsatn_hvt = 0                                    dlvsatn_hvt = '0.00037*A1N_hvt'                   dwvsatn_hvt = 0
+dpvsatn_hvt = '1.72e-11*A1N_hvt'                  deta0n_hvt = 0                                    dleta0n_hvt = '4e-10*A1N_hvt'
+dweta0n_hvt = 0                                   dpeta0n_hvt = '-1e-16*A1N_hvt'                    du0n_hvt = 0
+dlu0n_hvt = '-1.8e-12*A1N_hvt'                    dwu0n_hvt = '-3e-12*A1N_hvt'                      dpu0n_hvt = '8e-19*A1N_hvt'
+dagsn_hvt = '0.2*A1N_hvt'                         dlagsn_hvt = 0                                    dwagsn_hvt = '2.5e-08*A1N_hvt'
+dpagsn_hvt = 0                                    da0n_hvt = 0                                      dla0n_hvt = 0
+dwa0n_hvt = 0                                     dpa0n_hvt = 0                                     dlatn_hvt = 0
+dluc1n_hvt = 0                                    dlub1n_hvt = 0.01e-24                             dpatn_hvt = 0
+dpkt1n_hvt = 0                                    ss_flag_hvt = 0                                   ff_flag_hvt = 0
+sf_flag_hvt = 1                                   fs_flag_hvt = 0
+toxp_hvt = '2.2e-09 + 6.0000e-11*A4NP_hvt'        dxlp_hvt = '5e-09*A2P_hvt'                        dxwp_hvt = '8e-09*A3P_hvt'
+cjp_hvt = '1.0800E-03 * (1+0.070*A1P_hvt)'        cjswp_hvt = '6.4000E-11 * (1+0.070*A1P_hvt)'      cjswgp_hvt = '3.0500E-10 * (1+0.070*A1P_hvt)'
+cgop_hvt = '4.043640E-11 * (1-0.070*A4NP_hvt)'    cglp_hvt = '3.702200E-11 * (1-0.070*A4NP_hvt)'    ddlcp_hvt = '4.585530E-09 + 0.0000e+00*A1P_hvt'
+cfp_hvt = '1.25e-10*(1-0.070*A4NP_hvt)+4.5e-11*ccoflag_hvt'
+ntoxp_hvt = '1 + -6.6000e-01*A4NP_hvt'            drdswp_hvt = 0                                    dvthp_hvt = '-0.0272*A1P_hvt'
+dlvthp_hvt = '-5e-11*A1P_hvt'                     dwvthp_hvt = '-5.9e-09*A1P_hvt'                   dpvthp_hvt = '-1.76e-16*A1P_hvt'
+dvsatp_hvt = 0                                    dlvsatp_hvt = '4e-05*A1P_hvt'                     dwvsatp_hvt = 0
+dpvsatp_hvt = '1.5e-11*A1P_hvt'                   deta0p_hvt = 0                                    dleta0p_hvt = '9e-10*A1P_hvt'
+dweta0p_hvt = 0                                   dpeta0p_hvt = '8e-17*A1P_hvt'                     dk2p_hvt = 0
+dlk2p_hvt = '5.5e-10*A1P_hvt'                     dwk2p_hvt = '5.5e-10*A1P_hvt'                     dpk2p_hvt = 0
+dnfactorp_hvt = 0                                 dlnfactorp_hvt = 0                                dwnfactorp_hvt = 0
+dpnfactorp_hvt = 0                                dvoffp_hvt = 0                                    dlvoffp_hvt = '2.9e-10*A1P_hvt'
+dwvoffp_hvt = '5e-11*A1P_hvt'                     dpvoffp_hvt = '1.2e-17*A1P_hvt'                   dpclmp_hvt = 0
+dlpclmp_hvt = 0                                   dwpclmp_hvt = 0                                   dppclmp_hvt = 0
+du0p_hvt = '5e-05*A1P_hvt'                        dlu0p_hvt = '6.5e-12*A1P_hvt'                     dwu0p_hvt = '-5e-12*A1P_hvt'
+dpu0p_hvt = '-3e-18*A1P_hvt'                      dcitp_hvt = 0                                     dlcitp_hvt = '-3.6e-11*A1P_hvt'
+dwcitp_hvt = 0                                    dpcitp_hvt = '-4e-18*A1P_hvt'                     dagsp_hvt = '0.25*A1P_hvt'
+dlagsp_hvt = 0                                    dwagsp_hvt = '5.5e-08*A1P_hvt'                    dpagsp_hvt = 0
+da0p_hvt = 0                                      dla0p_hvt = '-6e-08*A1P_hvt'                      dwa0p_hvt = '-1.8e-08*A1P_hvt'
+dpa0p_hvt = '-3e-14*A1P_hvt'                      datp_hvt = 0                                      dub1p_hvt = 0
+dlub1p_hvt = 0                                    dua1p_hvt = 0                                     dlua1p_hvt = 0
+duc1p_hvt       = 0              dluc1p_hvt      = 0              
.lib 'CLN65GPLUS_1d8_lk_v1d0p1.l' MOS_hvt
.ENDL SF_hvt

***************************     LIBRARY OF FNSP CORNER CASE     ***************************
.LIB FS_hvt
.lib 'CLN65GPLUS_1d8_lk_v1d0p1.l' post_simu_hvt
.param
+A1N_hvt=-0.8 A1P_hvt=0.8 A2N_hvt=0 A2P_hvt=0 A3N_hvt=1 A3P_hvt=-1 A4NP_hvt=0
+toxn_hvt = '2e-09 + 6.0000e-11*A4NP_hvt'          dxln_hvt = '5e-09*A2N_hvt'                        dxwn_hvt = '8e-09*A3N_hvt'
+cjn_hvt = '1.32969E-03 * (1+0.070*A1N_hvt)'       cjswn_hvt = '6.68996E-11 * (1+0.070*A1N_hvt)'     cjswgn_hvt = '3.35356E-10 * (1+0.070*A1N_hvt)'
+cgon_hvt = '6.216940E-11 * (1-0.070*A4NP_hvt)'    cgln_hvt = '1.255870E-11 * (1-0.070*A4NP_hvt)'    ddlcn_hvt = '3.974830E-09 + 0.0000e+00*A1N_hvt'
+ntoxn_hvt = '1 + -2.2000e-01*A4NP_hvt'
+cfn_hvt = '1.25e-10*(1-0.070*A4NP_hvt)+4.5e-11*ccoflag_hvt'
+dvthn_hvt = '0.0174*A1N_hvt'                      dlvthn_hvt = '1.2e-09*A1N_hvt'                    dwvthn_hvt = '3.4e-09*A1N_hvt'
+dpvthn_hvt = '1.68e-16*A1N_hvt'                   dk2n_hvt = '-0.0013*A1N_hvt'                      dlk2n_hvt = '6e-10*A1N_hvt'
+dwk2n_hvt = '6e-10*A1N_hvt'                       dpk2n_hvt = '3e-17*A1N_hvt'                       dcitn_hvt = 0
+dlcitn_hvt = '3e-11*A1N_hvt'                      dwcitn_hvt = 0                                    dpcitn_hvt = '1e-18*A1N_hvt'
+dnfactorn_hvt = 0                                 dlnfactorn_hvt = 0                                dwnfactorn_hvt = 0
+dpnfactorn_hvt = 0                                dvoffn_hvt = 0                                    dlvoffn_hvt = '-2.49e-10*A1N_hvt'
+dwvoffn_hvt = '3.3e-10*A1N_hvt'                   dpvoffn_hvt = '3.8e-17*A1N_hvt'                   dpclmn_hvt = 0
+dlpclmn_hvt = 0                                   dwpclmn_hvt = 0                                   dppclmn_hvt = 0
+dvsatn_hvt = 0                                    dlvsatn_hvt = '0.00037*A1N_hvt'                   dwvsatn_hvt = 0
+dpvsatn_hvt = '1.72e-11*A1N_hvt'                  deta0n_hvt = 0                                    dleta0n_hvt = '4e-10*A1N_hvt'
+dweta0n_hvt = 0                                   dpeta0n_hvt = '-1e-16*A1N_hvt'                    du0n_hvt = 0
+dlu0n_hvt = '-1.8e-12*A1N_hvt'                    dwu0n_hvt = '-3e-12*A1N_hvt'                      dpu0n_hvt = '8e-19*A1N_hvt'
+dagsn_hvt = '0.2*A1N_hvt'                         dlagsn_hvt = 0                                    dwagsn_hvt = '2.5e-08*A1N_hvt'
+dpagsn_hvt = 0                                    da0n_hvt = 0                                      dla0n_hvt = 0
+dwa0n_hvt = 0                                     dpa0n_hvt = 0                                     dlatn_hvt = 0
+dluc1n_hvt = 0                                    dlub1n_hvt = 0                                    dpatn_hvt = 0
+dpkt1n_hvt = 0                                    ss_flag_hvt = 0                                   ff_flag_hvt = 0
+sf_flag_hvt = 0                                   fs_flag_hvt = 1
+toxp_hvt = '2.2e-09 + 6.0000e-11*A4NP_hvt'        dxlp_hvt = '5e-09*A2P_hvt'                        dxwp_hvt = '8e-09*A3P_hvt'
+cjp_hvt = '1.0800E-03 * (1+0.070*A1P_hvt)'        cjswp_hvt = '6.4000E-11 * (1+0.070*A1P_hvt)'      cjswgp_hvt = '3.0500E-10 * (1+0.070*A1P_hvt)'
+cgop_hvt = '4.043640E-11 * (1-0.070*A4NP_hvt)'    cglp_hvt = '3.702200E-11 * (1-0.070*A4NP_hvt)'    ddlcp_hvt = '4.585530E-09 + 0.0000e+00*A1P_hvt'
+cfp_hvt = '1.25e-10*(1-0.070*A4NP_hvt)+4.5e-11*ccoflag_hvt'
+ntoxp_hvt = '1 + -6.6000e-01*A4NP_hvt'            drdswp_hvt = 0                                    dvthp_hvt = '-0.0272*A1P_hvt'
+dlvthp_hvt = '-5e-11*A1P_hvt'                     dwvthp_hvt = '-5.9e-09*A1P_hvt'                   dpvthp_hvt = '-1.76e-16*A1P_hvt'
+dvsatp_hvt = 0                                    dlvsatp_hvt = '4e-05*A1P_hvt'                     dwvsatp_hvt = 0
+dpvsatp_hvt = '1.5e-11*A1P_hvt'                   deta0p_hvt = 0                                    dleta0p_hvt = '9e-10*A1P_hvt'
+dweta0p_hvt = 0                                   dpeta0p_hvt = '8e-17*A1P_hvt'                     dk2p_hvt = 0
+dlk2p_hvt = '5.5e-10*A1P_hvt'                     dwk2p_hvt = '5.5e-10*A1P_hvt'                     dpk2p_hvt = 0
+dnfactorp_hvt = 0                                 dlnfactorp_hvt = 0                                dwnfactorp_hvt = 0
+dpnfactorp_hvt = 0                                dvoffp_hvt = 0                                    dlvoffp_hvt = '2.9e-10*A1P_hvt'
+dwvoffp_hvt = '5e-11*A1P_hvt'                     dpvoffp_hvt = '1.2e-17*A1P_hvt'                   dpclmp_hvt = 0
+dlpclmp_hvt = 0                                   dwpclmp_hvt = 0                                   dppclmp_hvt = 0
+du0p_hvt = '5e-05*A1P_hvt'                        dlu0p_hvt = '6.5e-12*A1P_hvt'                     dwu0p_hvt = '-5e-12*A1P_hvt'
+dpu0p_hvt = '-3e-18*A1P_hvt'                      dcitp_hvt = 0                                     dlcitp_hvt = '-3.6e-11*A1P_hvt'
+dwcitp_hvt = 0                                    dpcitp_hvt = '-4e-18*A1P_hvt'                     dagsp_hvt = '0.25*A1P_hvt'
+dlagsp_hvt = 0                                    dwagsp_hvt = '5.5e-08*A1P_hvt'                    dpagsp_hvt = 0
+da0p_hvt = 0                                      dla0p_hvt = '-6e-08*A1P_hvt'                      dwa0p_hvt = '-1.8e-08*A1P_hvt'
+dpa0p_hvt = '-3e-14*A1P_hvt'                      datp_hvt = 0                                      dub1p_hvt = 0
+dlub1p_hvt = 0                                    dua1p_hvt = 0.1e-9                                dlua1p_hvt = 0
+duc1p_hvt       = -0.9e-10       dluc1p_hvt      = 0              
.lib 'CLN65GPLUS_1d8_lk_v1d0p1.l' MOS_hvt
.ENDL FS_hvt

***************************     LIBRARY OF TYPICAL CASE     ***************************
.LIB TT_lvt
.lib 'CLN65GPLUS_1d8_lk_v1d0p1.l' post_simu_lvt
.param
+ss_flag_lvt    = 0             ff_flag_lvt    = 0             sf_flag_lvt    = 0
+fs_flag_lvt    = 0             toxn_lvt       = 2e-09         dxwn_lvt       = 0
+dxln_lvt       = 0             dvthn_lvt      = 0             dlvthn_lvt     = 0
+dwvthn_lvt     = 0             dpvthn_lvt     = 0
+cjn_lvt        = 1.207E-03
+cjswn_lvt      = 6.400E-11
+cjswgn_lvt     = 2.970E-10
+cgon_lvt       = 7.365450E-11
+cgln_lvt       = 7.369080E-14
+ddlcn_lvt      = 3.858670E-09
+cfn_lvt        = '1.25e-10 + 4.5e-11*ccoflag_lvt'
+drdswn_lvt     = 0             dnfactorn_lvt  = 0             dlnfactorn_lvt = 0
+dwnfactorn_lvt = 0             dpnfactorn_lvt = 0             du0n_lvt       = 0
+dlu0n_lvt      = 0             dwu0n_lvt      = 0             dpu0n_lvt      = 0
+deta0n_lvt     = 0             dleta0n_lvt    = 0             dweta0n_lvt    = 0
+dpeta0n_lvt    = 0             dvsatn_lvt     = 0             dlvsatn_lvt    = 0
+dwvsatn_lvt    = 0             dpvsatn_lvt    = 0             ntoxn_lvt      = 1
+dk2n_lvt       = 0             dlk2n_lvt      = 0             dwk2n_lvt      = 0
+dpk2n_lvt      = 0             dagsn_lvt      = 0             dpclmn_lvt     = 0
+dppclmn_lvt    = 0             dlcitn_lvt     = 0             dwcitn_lvt     = 0
+dpcitn_lvt     = 0             dlagsn_lvt     = 0             datn_lvt       = 0
+dla0n_lvt      = 0             dwa0n_lvt      = 0             dpa0n_lvt      = 0
+dlatn_lvt      = 0             dwatn_lvt      = 0             dpatn_lvt      = 0
+dlkt1n_lvt     = 0             dwkt1n_lvt     = 0             dpkt1n_lvt     = 0
+dpagsn_lvt     = 0             dwagsn_lvt     = 0
+toxp_lvt       = 2.2e-09       dxwp_lvt       = 0             dxlp_lvt       = 0
+dvthp_lvt      = 0             dlvthp_lvt     = 0             dwvthp_lvt     = 0
+dpvthp_lvt     = 0             cjp_lvt        = 1.020E-03     cjswp_lvt      = 6.400E-11
+cjswgp_lvt     = 1.950E-10     cgop_lvt       = 4.635940E-11  cglp_lvt       = 7.388770E-11
+ddlcp_lvt      = 7.307280E-09  cfp_lvt        = '1.25e-10 + 4.5e-11*ccoflag_lvt' drdswp_lvt     = 0
+dnfactorp_lvt  = 0             dlnfactorp_lvt = 0             dwnfactorp_lvt = 0
+dpnfactorp_lvt = 0             du0p_lvt       = 0             dlu0p_lvt      = 0
+dwu0p_lvt      = 0             dpu0p_lvt      = 0             dvoffp_lvt     = 0
+dlvoffp_lvt    = 0             dwvoffp_lvt    = 0             dpvoffp_lvt    = 0
+deta0p_lvt     = 0             dleta0p_lvt    = 0             dweta0p_lvt    = 0
+dpeta0p_lvt    = 0             dvsatp_lvt     = 0             dlvsatp_lvt    = 0
+dwvsatp_lvt    = 0             dpvsatp_lvt    = 0             ntoxp_lvt      = 1
+dk2p_lvt       = 0             dlk2p_lvt      = 0             dwk2p_lvt      = 0
+dpk2p_lvt      = 0             dagsp_lvt      = 0             dlagsp_lvt     = 0
+dwagsp_lvt     = 0             dpagsp_lvt     = 0             da0p_lvt       = 0
+dla0p_lvt      = 0             dwa0p_lvt      = 0             dpa0p_lvt      = 0
+dpclmp_lvt     = 0             dlpclmp_lvt    = 0             dwpclmp_lvt    = 0
+dppclmp_lvt    = 0             duc1p_lvt      = 0             ducp_lvt       = 0
+dketap_lvt     = 0             dlketap_lvt    = 0             dwketap_lvt    = 0
+dpketap_lvt     = 0              
+dlcitp_lvt     = 0             dwcitp_lvt     = 0
+dpcitp_lvt     = 0
+dlatp_lvt       = 0             dwatp_lvt       = 0
+dpatp_lvt       = 0             dlkt1p_lvt      = 0             dwkt1p_lvt      = 0
+dpkt1p_lvt      = 0
.lib 'CLN65GPLUS_1d8_lk_v1d0p1.l' MOS_lvt
.ENDL TT_lvt

***************************     LIBRARY OF SNSP CORNER CASE     ***************************
.LIB SS_lvt
.lib 'CLN65GPLUS_1d8_lk_v1d0p1.l' post_simu_lvt
.param
+ss_flag_lvt    = 1             ff_flag_lvt    = 0             sf_flag_lvt    = 0
+fs_flag_lvt    = 0             toxn_lvt       = 2.06e-09      dxwn_lvt       = -8e-09
+dxln_lvt       = 5e-09         dvthn_lvt      = 0.027             dlvthn_lvt     = 11.6E-10
+dwvthn_lvt     = 1.7E-9            dpvthn_lvt     = 2.2E-16
+cjn_lvt        = 1.291E-03
+cjswn_lvt      = 6.848E-11
+cjswgn_lvt     = 3.178E-10
+cgon_lvt       = 6.84987E-11
+cgln_lvt       = 6.85324E-14
+ddlcn_lvt      = 3.85867E-09
+cfn_lvt        = '1.1625e-10 + 4.5e-11*ccoflag_lvt'
+drdswn_lvt     = -5            dnfactorn_lvt  = 0             dlnfactorn_lvt = 0
+dwnfactorn_lvt = 0             dpnfactorn_lvt = 0             du0n_lvt       = 0
+dlu0n_lvt      = 0             dwu0n_lvt      = 0             dpu0n_lvt      = 0
+deta0n_lvt     = 0             dleta0n_lvt    = 6e-10             dweta0n_lvt    = 0
+dpeta0n_lvt    = -34.5e-17             dvsatn_lvt     = 0             dlvsatn_lvt    = 0
+dwvsatn_lvt    = 0             dpvsatn_lvt    = 0             ntoxn_lvt      = 0.52
+dk2n_lvt       = 0.016             dlk2n_lvt      = -2.7e-10             dwk2n_lvt      = 1.3e-09
+dpk2n_lvt      = 8e-17            dagsn_lvt      = -0.09             dpclmn_lvt     = 0
+dppclmn_lvt    = 0             dlcitn_lvt     = 0             dwcitn_lvt     = 0
+dpcitn_lvt     = 1e-18            dlagsn_lvt     = 3e-7             datn_lvt       = 0
+dla0n_lvt     = -2.4e-7           dwa0n_lvt     = 2.3e-7           dpa0n_lvt       = -2.9e-14
+dlatn_lvt       = 0             dwatn_lvt       = 0             dpatn_lvt       = 0
+dlkt1n_lvt      = 0             dwkt1n_lvt      = 0             dpkt1n_lvt      = 0
+dpagsn_lvt     = 0
+dwagsn_lvt     = -4e-8
+toxp_lvt       = 2.26e-09      dxwp_lvt       = -8e-09        dxlp_lvt       = 5e-09
+dvthp_lvt      = -0.031             dlvthp_lvt     = -9.5e-10             dwvthp_lvt     = -2.0e-9
+dpvthp_lvt     = -19.12e-17             cjp_lvt        = 1.091E-03     cjswp_lvt      = 6.848E-11
+cjswgp_lvt     = 2.087E-10     cgop_lvt       = 4.31142E-11   cglp_lvt       = 6.87156E-11
+ddlcp_lvt      = 7.30728E-09   cfp_lvt        = '1.1625e-10 + 4.5e-11*ccoflag_lvt' drdswp_lvt     = -30
+dnfactorp_lvt  = 0             dlnfactorp_lvt = 0             dwnfactorp_lvt = 0
+dpnfactorp_lvt = 0             du0p_lvt       = 0             dlu0p_lvt      = 0
+dwu0p_lvt      = 0             dpu0p_lvt      = -3e-18             dvoffp_lvt     = 0
+dlvoffp_lvt    = 0             dwvoffp_lvt    = 0             dpvoffp_lvt    = 0
+deta0p_lvt     = 0             dleta0p_lvt    = 1.4e-9              dweta0p_lvt    = 0
+dpeta0p_lvt    = -11e-17             dvsatp_lvt     = 0             dlvsatp_lvt    = 0
+dwvsatp_lvt    = 0             dpvsatp_lvt    = 0             ntoxp_lvt      = 0.23
+dk2p_lvt       = 0             dlk2p_lvt      = 5e-10           dwk2p_lvt      = 0e-9
+dpk2p_lvt      = 0e-17            dagsp_lvt      = 0             dlagsp_lvt     = 0
+dwagsp_lvt     = 0e-9            dpagsp_lvt     = 4.2e-14            da0p_lvt       = 0
+dla0p_lvt      = 5e-8             dwa0p_lvt      = 0e-9           dpa0p_lvt      = -1e-14
+dpclmp_lvt     = 0             dlpclmp_lvt    = 0             dwpclmp_lvt    = 0
+dppclmp_lvt    = 0             duc1p_lvt      = 0             ducp_lvt       = 0
+dketap_lvt     = 0             dlketap_lvt    = 0             dwketap_lvt    = 0
+dpketap_lvt    = 0             dlcitp_lvt     = 0e-11            dwcitp_lvt     = 0
+dpcitp_lvt      = 0              
+dlatp_lvt       = 0             dwatp_lvt       = 0
+dpatp_lvt       = 0             dlkt1p_lvt      = 0             dwkt1p_lvt      = 0
+dpkt1p_lvt      = 0
.lib 'CLN65GPLUS_1d8_lk_v1d0p1.l' MOS_lvt
.ENDL SS_lvt

***************************     LIBRARY OF FNFP CORNER CASE     ***************************
.LIB FF_lvt
.lib 'CLN65GPLUS_1d8_lk_v1d0p1.l' post_simu_lvt
.param
+ss_flag_lvt    = 0             ff_flag_lvt    = 1             sf_flag_lvt    = 0
+fs_flag_lvt    = 0             toxn_lvt       = 1.94e-09      dxwn_lvt       = 8e-09
+dxln_lvt       = -5e-09
+dvthn_lvt      = -0.028           dlvthn_lvt     = -8.42E-10
+dwvthn_lvt     = -2.3E-9             dpvthn_lvt     = -1.85E-16
+cjn_lvt        = 1.123E-03
+cjswn_lvt      = 5.952E-11
+cjswgn_lvt     = 2.762E-10
+cgon_lvt       = 7.88103E-11
+cgln_lvt       = 7.88492E-14
+ddlcn_lvt      = 3.85867E-09
+cfn_lvt        = '1.3375e-10 + 4.5e-11*ccoflag_lvt'
+drdswn_lvt     = 3.5            dnfactorn_lvt  = 0             dlnfactorn_lvt = 0
+dwnfactorn_lvt = 0             dpnfactorn_lvt = 0             du0n_lvt       = 0
+dlu0n_lvt      = 0            dwu0n_lvt      = 0             dpu0n_lvt      = 0
+deta0n_lvt     = 0             dleta0n_lvt    = -6.1e-10             dweta0n_lvt    = 0
+dpeta0n_lvt    = 28.42e-17             dvsatn_lvt     = 0             dlvsatn_lvt    = 0
+dwvsatn_lvt    = 0             dpvsatn_lvt    = 0             ntoxn_lvt      = 1.41
+dk2n_lvt       = -0.0178             dlk2n_lvt      = 2e-10             dwk2n_lvt      = -1.9e-09
+dpk2n_lvt      = -1.1e-16            dagsn_lvt      = -0.25            dpclmn_lvt     = 0
+dppclmn_lvt    = 0             dlcitn_lvt     = 0             dwcitn_lvt     = 0
+dpcitn_lvt     = -8.2e-18            dlagsn_lvt     = -5.44e-08             datn_lvt       = 0
+dla0n_lvt     = 3e-7           dwa0n_lvt     = -2.3e-7            dpa0n_lvt       = 9e-14
+dlatn_lvt       = -2E-4           dwatn_lvt       = 0             dpatn_lvt       = 0
+dlkt1n_lvt      = 0             dwkt1n_lvt      = 0             dpkt1n_lvt      = 0
+dpagsn_lvt     = 0e-14
+dwagsn_lvt     = 3e-8
+toxp_lvt       = 2.14e-09      dxwp_lvt       = 8e-09         dxlp_lvt       = -5e-09
+dvthp_lvt      = 0.033             dlvthp_lvt     = 6.85e-10             dwvthp_lvt     = 2.8e-9
+dpvthp_lvt     = 19.12e-17              cjp_lvt        = 9.486E-04     cjswp_lvt      = 5.952E-11
+cjswgp_lvt     = 1.814E-10     cgop_lvt       = 4.96046E-11   cglp_lvt       = 7.90598E-11
+ddlcp_lvt      = 7.30728E-09   cfp_lvt        = '1.3375e-10 + 4.5e-11*ccoflag_lvt' drdswp_lvt     = 25
+dnfactorp_lvt  = 0             dlnfactorp_lvt = 0             dwnfactorp_lvt = 0
+dpnfactorp_lvt = 0             du0p_lvt       = 0             dlu0p_lvt      = 0e-11
+dwu0p_lvt      = 0             dpu0p_lvt      = 3e-18             dvoffp_lvt     = 0
+dlvoffp_lvt    = 0             dwvoffp_lvt    = 0             dpvoffp_lvt    = 0
+deta0p_lvt     = 0             dleta0p_lvt    = -1.4e-9            dweta0p_lvt    = 0
+dpeta0p_lvt    = 2.1e-17            dvsatp_lvt     = 0             dlvsatp_lvt    = -0.00009
+dwvsatp_lvt    = 0             dpvsatp_lvt    = -1.5e-11            ntoxp_lvt      = 1.64
+dk2p_lvt       = 0             dlk2p_lvt      = -5e-10           dwk2p_lvt      = 0
+dpk2p_lvt      = 0e-17            dagsp_lvt      = 0             dlagsp_lvt     = 0
+dwagsp_lvt     = -0e-8            dpagsp_lvt     = -0e-14             da0p_lvt       = 0
+dla0p_lvt      = -1e-8             dwa0p_lvt      = 0            dpa0p_lvt      = 2e-14
+dpclmp_lvt     = 0             dlpclmp_lvt    = 0             dwpclmp_lvt    = 0
+dppclmp_lvt    = 0             duc1p_lvt      = 0             ducp_lvt       = 0
+dketap_lvt     = 0             dlketap_lvt    = 0             dwketap_lvt    = 0
+dpketap_lvt     = 0              
+dlcitp_lvt     = -1e-10            dwcitp_lvt     = 0
+dpcitp_lvt     = 0
+dlatp_lvt       = 0             dwatp_lvt       = 0
+dpatp_lvt       = 0             dlkt1p_lvt      = 1e-9             dwkt1p_lvt      = 0
+dpkt1p_lvt      = 0
.lib 'CLN65GPLUS_1d8_lk_v1d0p1.l' MOS_lvt
.ENDL FF_lvt

***************************     LIBRARY OF SNFP CORNER CASE     ***************************
.LIB SF_lvt
.lib 'CLN65GPLUS_1d8_lk_v1d0p1.l' post_simu_lvt
.param
+A1N_lvt=0.8 A1P_lvt=-0.8 A2N_lvt=0 A2P_lvt=0 A3N_lvt=-1 A3P_lvt=1 A4NP_lvt=0
+ss_flag_lvt = 0                                   ff_flag_lvt = 0                                   sf_flag_lvt = 1
+fs_flag_lvt = 0                                   toxn_lvt = '2e-09 + 6.0000e-11*A4NP_lvt'          dxwn_lvt = '8e-09*A3N_lvt'
+dxln_lvt = '5e-09*A2N_lvt'                        dvthn_lvt = '0.028*A1N_lvt'                       dlvthn_lvt = '8.42e-10*A1N_lvt'
+dwvthn_lvt = '2.3e-09*A1N_lvt'                    dpvthn_lvt = '1.85e-16*A1N_lvt'                   cjn_lvt = '1.207E-03 * (1+0.070*A1N_lvt)'
+cjswn_lvt = '6.400E-11 * (1+0.070*A1N_lvt)'       cjswgn_lvt = '2.970E-10 * (1+0.070*A1N_lvt)'      cgon_lvt = '7.365450E-11 * (1-0.070*A4NP_lvt)'
+cgln_lvt = '7.369080E-14 * (1-0.070*A4NP_lvt)'    ddlcn_lvt = '3.858670E-09 + 0.0000e+00*A1N_lvt'
+cfn_lvt = '1.25e-10*(1-0.070*A4NP_lvt)+4.5e-11*ccoflag_lvt'
+drdswn_lvt = '-3.5*A1N_lvt'                       dnfactorn_lvt = 0                                 dlnfactorn_lvt = 0
+dwnfactorn_lvt = 0                                dpnfactorn_lvt = 0                                du0n_lvt = 0
+dlu0n_lvt = 0                                     dwu0n_lvt = 0                                     dpu0n_lvt = 0
+deta0n_lvt = 0                                    dleta0n_lvt = '6.1e-10*A1N_lvt'                   dweta0n_lvt = 0
+dpeta0n_lvt = '-2.842e-16*A1N_lvt'                dvsatn_lvt = 0                                    dlvsatn_lvt = 0
+dwvsatn_lvt = 0                                   dpvsatn_lvt = 0                                   ntoxn_lvt = '1 + -4.1000e-01*A4NP_lvt'
+dk2n_lvt = '0.0178*A1N_lvt'                       dlk2n_lvt = '-2e-10*A1N_lvt'                      dwk2n_lvt = '1.9e-09*A1N_lvt'
+dpk2n_lvt = '1.1e-16*A1N_lvt'                     dagsn_lvt = '0.25*A1N_lvt'                        dpclmn_lvt = 0
+dppclmn_lvt = 0                                   dlcitn_lvt = 0                                    dwcitn_lvt = 0
+dpcitn_lvt = '8.2e-18*A1N_lvt'                    dlagsn_lvt = '5.44e-08*A1N_lvt'                   datn_lvt = 0
+dla0n_lvt = '-3e-07*A1N_lvt'                      dwa0n_lvt = '2.3e-07*A1N_lvt'                     dpa0n_lvt = '-9e-14*A1N_lvt'
+dlatn_lvt = '0.0002*A1N_lvt'                      dwatn_lvt = 0                                     dpatn_lvt = 0
+dlkt1n_lvt = 0                                    dwkt1n_lvt = 0                                    dpkt1n_lvt = 0
+dpagsn_lvt = '0*A1N_lvt'                          dwagsn_lvt = '-3e-08*A1N_lvt'
+toxp_lvt = '2.2e-09 + 6.0000e-11*A4NP_lvt'        dxwp_lvt = '8e-09*A3P_lvt'                        dxlp_lvt = '5e-09*A2P_lvt'
+dvthp_lvt = '-0.033*A1P_lvt'                      dlvthp_lvt = '-6.85e-10*A1P_lvt'                  dwvthp_lvt = '-2.8e-09*A1P_lvt'
+dpvthp_lvt = '-1.912e-16*A1P_lvt'                 cjp_lvt = '1.020E-03 * (1+0.070*A1P_lvt)'         cjswp_lvt = '6.400E-11 * (1+0.070*A1P_lvt)'
+cjswgp_lvt = '1.950E-10 * (1+0.070*A1P_lvt)'      cgop_lvt = '4.635940E-11 * (1-0.070*A4NP_lvt)'    cglp_lvt = '7.388770E-11 * (1-0.070*A4NP_lvt)'
+ddlcp_lvt = '7.307280E-09 + 0.0000e+00*A1P_lvt'
+cfp_lvt = '1.25e-10*(1-0.070*A4NP_lvt)+4.5e-11*ccoflag_lvt'
+drdswp_lvt = '-25*A1P_lvt'                        dnfactorp_lvt = 0                                 dlnfactorp_lvt = 0
+dwnfactorp_lvt = 0                                dpnfactorp_lvt = 0                                du0p_lvt = 0
+dlu0p_lvt = '0*A1P_lvt'                           dwu0p_lvt = 0                                     dpu0p_lvt = '-3e-18*A1P_lvt'
+dvoffp_lvt = 0                                    dlvoffp_lvt = 0                                   dwvoffp_lvt = 0
+dpvoffp_lvt = 0                                   deta0p_lvt = 0                                    dleta0p_lvt = '1.4e-09*A1P_lvt'
+dweta0p_lvt = 0                                   dpeta0p_lvt = '-2.1e-17*A1P_lvt'                  dvsatp_lvt = 0
+dlvsatp_lvt = '9e-05*A1P_lvt'                     dwvsatp_lvt = 0                                   dpvsatp_lvt = '1.5e-11*A1P_lvt'
+ntoxp_lvt = '1 + -6.4000e-01*A4NP_lvt'            dk2p_lvt = 0                                      dlk2p_lvt = '5e-10*A1P_lvt'
+dwk2p_lvt = 0                                     dpk2p_lvt = '0*A1P_lvt'                           dagsp_lvt = 0
+dlagsp_lvt = 0                                    dwagsp_lvt = '0*A1P_lvt'                          dpagsp_lvt = '0*A1P_lvt'
+da0p_lvt = 0                                      dla0p_lvt = '1e-08*A1P_lvt'                       dwa0p_lvt = 0
+dpa0p_lvt = '-2e-14*A1P_lvt'                      dpclmp_lvt = 0                                    dlpclmp_lvt = 0
+dwpclmp_lvt = 0                                   dppclmp_lvt = 0                                   duc1p_lvt = 0
+ducp_lvt = 0                                      dketap_lvt = 0                                    dlketap_lvt = 0
+dwketap_lvt     = 0              dpketap_lvt     = 0              
+dlcitp_lvt = '1e-10*A1P_lvt'                      dwcitp_lvt = 0                                    dpcitp_lvt = 0
+dlatp_lvt = 0                                     dwatp_lvt = 0                                     dpatp_lvt = 0
+dlkt1p_lvt = '-1e-09*A1P_lvt'                     dwkt1p_lvt = 0                                    dpkt1p_lvt = 0
.lib 'CLN65GPLUS_1d8_lk_v1d0p1.l' MOS_lvt
.ENDL SF_lvt

***************************     LIBRARY OF FNSP CORNER CASE     ***************************
.LIB FS_lvt
.lib 'CLN65GPLUS_1d8_lk_v1d0p1.l' post_simu_lvt
.param
+A1N_lvt=-0.8 A1P_lvt=0.8 A2N_lvt=0 A2P_lvt=0 A3N_lvt=1 A3P_lvt=-1 A4NP_lvt=0
+ss_flag_lvt = 0                                   ff_flag_lvt = 0                                   sf_flag_lvt = 0
+fs_flag_lvt = 1                                   toxn_lvt = '2e-09 + 6.0000e-11*A4NP_lvt'          dxwn_lvt = '8e-09*A3N_lvt'
+dxln_lvt = '5e-09*A2N_lvt'                        dvthn_lvt = '0.028*A1N_lvt'                       dlvthn_lvt = '8.42e-10*A1N_lvt'
+dwvthn_lvt = '2.3e-09*A1N_lvt'                    dpvthn_lvt = '1.85e-16*A1N_lvt'                   cjn_lvt = '1.207E-03 * (1+0.070*A1N_lvt)'
+cjswn_lvt = '6.400E-11 * (1+0.070*A1N_lvt)'       cjswgn_lvt = '2.970E-10 * (1+0.070*A1N_lvt)'      cgon_lvt = '7.365450E-11 * (1-0.070*A4NP_lvt)'
+cgln_lvt = '7.369080E-14 * (1-0.070*A4NP_lvt)'    ddlcn_lvt = '3.858670E-09 + 0.0000e+00*A1N_lvt'
+cfn_lvt = '1.25e-10*(1-0.070*A4NP_lvt)+4.5e-11*ccoflag_lvt'
+drdswn_lvt = '-3.5*A1N_lvt'                       dnfactorn_lvt = 0                                 dlnfactorn_lvt = 0
+dwnfactorn_lvt = 0                                dpnfactorn_lvt = 0                                du0n_lvt = 0
+dlu0n_lvt = 0                                     dwu0n_lvt = 0                                     dpu0n_lvt = 0
+deta0n_lvt = 0                                    dleta0n_lvt = '6.1e-10*A1N_lvt'                   dweta0n_lvt = 0
+dpeta0n_lvt = '-2.842e-16*A1N_lvt'                dvsatn_lvt = 0                                    dlvsatn_lvt = 0
+dwvsatn_lvt = 0                                   dpvsatn_lvt = 0                                   ntoxn_lvt = '1 + -4.1000e-01*A4NP_lvt'
+dk2n_lvt = '0.0178*A1N_lvt'                       dlk2n_lvt = '-2e-10*A1N_lvt'                      dwk2n_lvt = '1.9e-09*A1N_lvt'
+dpk2n_lvt = '1.1e-16*A1N_lvt'                     dagsn_lvt = '0.25*A1N_lvt'                        dpclmn_lvt = 0
+dppclmn_lvt = 0                                   dlcitn_lvt = 0                                    dwcitn_lvt = 0
+dpcitn_lvt = '8.2e-18*A1N_lvt'                    dlagsn_lvt = '5.44e-08*A1N_lvt'                   datn_lvt = 0
+dla0n_lvt = '-3e-07*A1N_lvt'                      dwa0n_lvt = '2.3e-07*A1N_lvt'                     dpa0n_lvt = '-9e-14*A1N_lvt'
+dlatn_lvt = '0.0002*A1N_lvt'                      dwatn_lvt = 0                                     dpatn_lvt = 0
+dlkt1n_lvt = 0                                    dwkt1n_lvt = 0                                    dpkt1n_lvt = 0
+dpagsn_lvt = '0*A1N_lvt'                          dwagsn_lvt = '-3e-08*A1N_lvt'
+toxp_lvt = '2.2e-09 + 6.0000e-11*A4NP_lvt'        dxwp_lvt = '8e-09*A3P_lvt'                        dxlp_lvt = '5e-09*A2P_lvt'
+dvthp_lvt = '-0.033*A1P_lvt'                      dlvthp_lvt = '-6.85e-10*A1P_lvt'                  dwvthp_lvt = '-2.8e-09*A1P_lvt'
+dpvthp_lvt = '-1.912e-16*A1P_lvt'                 cjp_lvt = '1.020E-03 * (1+0.070*A1P_lvt)'         cjswp_lvt = '6.400E-11 * (1+0.070*A1P_lvt)'
+cjswgp_lvt = '1.950E-10 * (1+0.070*A1P_lvt)'      cgop_lvt = '4.635940E-11 * (1-0.070*A4NP_lvt)'    cglp_lvt = '7.388770E-11 * (1-0.070*A4NP_lvt)'
+ddlcp_lvt = '7.307280E-09 + 0.0000e+00*A1P_lvt'
+cfp_lvt = '1.25e-10*(1-0.070*A4NP_lvt)+4.5e-11*ccoflag_lvt'
+drdswp_lvt = '-25*A1P_lvt'                        dnfactorp_lvt = 0                                 dlnfactorp_lvt = 0
+dwnfactorp_lvt = 0                                dpnfactorp_lvt = 0                                du0p_lvt = 0
+dlu0p_lvt = '0*A1P_lvt'                           dwu0p_lvt = 0                                     dpu0p_lvt = '-3e-18*A1P_lvt'
+dvoffp_lvt = 0                                    dlvoffp_lvt = 0                                   dwvoffp_lvt = 0
+dpvoffp_lvt = 0                                   deta0p_lvt = 0                                    dleta0p_lvt = '1.4e-09*A1P_lvt'
+dweta0p_lvt = 0                                   dpeta0p_lvt = '-2.1e-17*A1P_lvt'                  dvsatp_lvt = 0
+dlvsatp_lvt = '9e-05*A1P_lvt'                     dwvsatp_lvt = 0                                   dpvsatp_lvt = '1.5e-11*A1P_lvt'
+ntoxp_lvt = '1 + -6.4000e-01*A4NP_lvt'            dk2p_lvt = 0                                      dlk2p_lvt = '5e-10*A1P_lvt'
+dwk2p_lvt = 0                                     dpk2p_lvt = '0*A1P_lvt'                           dagsp_lvt = 0
+dlagsp_lvt = 0                                    dwagsp_lvt = '0*A1P_lvt'                          dpagsp_lvt = '0*A1P_lvt'
+da0p_lvt = 0                                      dla0p_lvt = '1e-08*A1P_lvt'                       dwa0p_lvt = 0
+dpa0p_lvt = '-2e-14*A1P_lvt'                      dpclmp_lvt = 0                                    dlpclmp_lvt = 0
+dwpclmp_lvt = 0                                   dppclmp_lvt = 0                                   duc1p_lvt = 0
+ducp_lvt = 0                                      dketap_lvt = 0                                    dlketap_lvt = 0
+dwketap_lvt     = 0              dpketap_lvt     = 0              
+dlcitp_lvt = '1e-10*A1P_lvt'                      dwcitp_lvt = 0                                    dpcitp_lvt = 0
+dlatp_lvt = 0                                     dwatp_lvt = 0                                     dpatp_lvt = 0
+dlkt1p_lvt = '-1e-09*A1P_lvt'                     dwkt1p_lvt = 0                                    dpkt1p_lvt = 0
.lib 'CLN65GPLUS_1d8_lk_v1d0p1.l' MOS_lvt
.ENDL FS_lvt

***************************     LIBRARY OF TYPICAL CASE     ***************************
.LIB TT_18
.lib 'CLN65GPLUS_1d8_lk_v1d0p1.l' post_simu_18
.param
+toxp_18        = 3.7e-09       dxlp_18        = 0             dxwp_18        = 0
+cjp_18         = 1.098E-03     cjswp_18       = 7.800E-11     cjswgp_18      = 2.200E-10
[...]
.param Rsh = r_rm1s
.param dw = 0
.param pvc1 = 0   pvc2 = 0   ptc1 = 2.650E-03   ptc2 = -2.641E-07
.param tfac='1.0+ptc1*(pt-25.0)+ptc2*(pt-25.0)*(pt-25.0)'
.param pt='temper'
r1 n1 n2 'rsh*l*scale/(w*scale-dw)*(1+pvc1*(abs(v(n2,n1))/l/scale)+pvc2*(v(n2,n1)/l/scale)*(v(n2,n1)/l/scale))*tfac'
.ends rm1s
***********************************     Metal 1 with W/S=0.27/0.135     ***********************************
.subckt rm1w n1 n2 l=length w=width scale=1
.param Rsh = r_rm1w
.param dw = 0
.param pvc1 = 0   pvc2 = 0   ptc1 = 2.650E-03   ptc2 = -2.641E-07
.param tfac='1.0+ptc1*(pt-25.0)+ptc2*(pt-25.0)*(pt-25.0)'
.param pt='temper'
r1 n1 n2 'rsh*l*scale/(w*scale-dw)*(1+pvc1*(abs(v(n2,n1))/l/scale)+pvc2*(v(n2,n1)/l/scale)*(v(n2,n1)/l/scale))*tfac'
.ends rm1w
***********************************     Metal 2with W/S=0.1/0.5     ***********************************
.subckt rm2l n1 n2 l=length w=width scale=1
.param Rsh = r_rm2l
.param dw = 0
.param pvc1 = 0   pvc2 = 0   ptc1 = 2.709E-03   ptc2 = -3.483E-07
.param tfac='1.0+ptc1*(pt-25.0)+ptc2*(pt-25.0)*(pt-25.0)'
.param pt='temper'
r1 n1 n2 'rsh*l*scale/(w*scale-dw)*(1+pvc1*(abs(v(n2,n1))/l/scale)+pvc2*(v(n2,n1)/l/scale)*(v(n2,n1)/l/scale))*tfac'
.ends rm2l
***********************************     Metal 2 with W/S=0.1/0.1     ***********************************
.subckt rm2s n1 n2 l=length w=width scale=1
.param Rsh = r_rm2s
.param dw = 0
.param pvc1 = 0   pvc2 = 0   ptc1 = 2.709E-03   ptc2 = -3.483E-07
.param tfac='1.0+ptc1*(pt-25.0)+ptc2*(pt-25.0)*(pt-25.0)'
.param pt='temper'
r1 n1 n2 'rsh*l*scale/(w*scale-dw)*(1+pvc1*(abs(v(n2,n1))/l/scale)+pvc2*(v(n2,n1)/l/scale)*(v(n2,n1)/l/scale))*tfac'
.ends rm2s
***********************************     Metal 2 with W/S=0.3/0.13     ***********************************
.subckt rm2w n1 n2 l=length w=width scale=1
.param Rsh = r_rm2w
.param dw = 0
.param pvc1 = 0   pvc2 = 0   ptc1 = 2.709E-03   ptc2 = -3.483E-07
.param tfac='1.0+ptc1*(pt-25.0)+ptc2*(pt-25.0)*(pt-25.0)'
.param pt='temper'
r1 n1 n2 'rsh*l*scale/(w*scale-dw)*(1+pvc1*(abs(v(n2,n1))/l/scale)+pvc2*(v(n2,n1)/l/scale)*(v(n2,n1)/l/scale))*tfac'
.ends rm2w
***********************************     Metal 3 with W/S=0.1/0.5     ***********************************
.subckt rm3l n1 n2 l=length w=width scale=1
.param Rsh = r_rm3l
.param dw = 0
.param pvc1 = 0   pvc2 = 0   ptc1 = 2.709E-03   ptc2 = -3.483E-07
.param tfac='1.0+ptc1*(pt-25.0)+ptc2*(pt-25.0)*(pt-25.0)'
.param pt='temper'
r1 n1 n2 'rsh*l*scale/(w*scale-dw)*(1+pvc1*(abs(v(n2,n1))/l/scale)+pvc2*(v(n2,n1)/l/scale)*(v(n2,n1)/l/scale))*tfac'
.ends rm3l
***********************************     Metal 3 with W/S=0.1/0.1     ***********************************
.subckt rm3s n1 n2 l=length w=width scale=1
.param Rsh = r_rm3s
.param dw = 0
.param pvc1 = 0   pvc2 = 0   ptc1 = 2.709E-03   ptc2 = -3.483E-07
.param tfac='1.0+ptc1*(pt-25.0)+ptc2*(pt-25.0)*(pt-25.0)'
.param pt='temper'
r1 n1 n2 'rsh*l*scale/(w*scale-dw)*(1+pvc1*(abs(v(n2,n1))/l/scale)+pvc2*(v(n2,n1)/l/scale)*(v(n2,n1)/l/scale))*tfac'
.ends rm3s
***********************************     Metal 3 with W/S=0.3/0.13     ***********************************
.subckt rm3w n1 n2 l=length w=width scale=1
.param Rsh = r_rm3w
.param dw = 0
.param pvc1 = 0   pvc2 = 0   ptc1 = 2.709E-03   ptc2 = -3.483E-07
.param tfac='1.0+ptc1*(pt-25.0)+ptc2*(pt-25.0)*(pt-25.0)'
.param pt='temper'
r1 n1 n2 'rsh*l*scale/(w*scale-dw)*(1+pvc1*(abs(v(n2,n1))/l/scale)+pvc2*(v(n2,n1)/l/scale)*(v(n2,n1)/l/scale))*tfac'
.ends rm3w
***********************************     Metal 4 with W/S=0.1/0.5     ***********************************
.subckt rm4l n1 n2 l=length w=width scale=1
.param Rsh = r_rm4l
.param dw = 0
.param pvc1 = 0   pvc2 = 0   ptc1 = 2.709E-03   ptc2 = -3.483E-07
.param tfac='1.0+ptc1*(pt-25.0)+ptc2*(pt-25.0)*(pt-25.0)'
.param pt='temper'
r1 n1 n2 'rsh*l*scale/(w*scale-dw)*(1+pvc1*(abs(v(n2,n1))/l/scale)+pvc2*(v(n2,n1)/l/scale)*(v(n2,n1)/l/scale))*tfac'
.ends rm4l
***********************************     Metal 4 with W/S=0.1/0.1     ***********************************
.subckt rm4s n1 n2 l=length w=width scale=1
.param Rsh = r_rm4s
.param dw = 0
.param pvc1 = 0   pvc2 = 0   ptc1 = 2.709E-03   ptc2 = -3.483E-07
.param tfac='1.0+ptc1*(pt-25.0)+ptc2*(pt-25.0)*(pt-25.0)'
.param pt='temper'
r1 n1 n2 'rsh*l*scale/(w*scale-dw)*(1+pvc1*(abs(v(n2,n1))/l/scale)+pvc2*(v(n2,n1)/l/scale)*(v(n2,n1)/l/scale))*tfac'
.ends rm4s
***********************************     Metal 4 with W/S=0.3/0.13     ***********************************
.subckt rm4w n1 n2 l=length w=width scale=1
.param Rsh = r_rm4w
.param dw = 0
.param pvc1 = 0   pvc2 = 0   ptc1 = 2.709E-03   ptc2 = -3.483E-07
.param tfac='1.0+ptc1*(pt-25.0)+ptc2*(pt-25.0)*(pt-25.0)'
.param pt='temper'
r1 n1 n2 'rsh*l*scale/(w*scale-dw)*(1+pvc1*(abs(v(n2,n1))/l/scale)+pvc2*(v(n2,n1)/l/scale)*(v(n2,n1)/l/scale))*tfac'
.ends rm4w
***********************************     Metal 5 with W/S=0.1/0.5     ***********************************
.subckt rm5l n1 n2 l=length w=width scale=1
.param Rsh = r_rm5l
.param dw = 0
.param pvc1 = 0   pvc2 = 0   ptc1 = 2.709E-03   ptc2 = -3.483E-07
.param tfac='1.0+ptc1*(pt-25.0)+ptc2*(pt-25.0)*(pt-25.0)'
.param pt='temper'
r1 n1 n2 'rsh*l*scale/(w*scale-dw)*(1+pvc1*(abs(v(n2,n1))/l/scale)+pvc2*(v(n2,n1)/l/scale)*(v(n2,n1)/l/scale))*tfac'
.ends rm5l
***********************************     Metal 5 with W/S=0.1/0.1     ***********************************
.subckt rm5s n1 n2 l=length w=width scale=1
.param Rsh = r_rm5s
.param dw = 0
.param pvc1 = 0   pvc2 = 0   ptc1 = 2.709E-03   ptc2 = -3.483E-07
.param tfac='1.0+ptc1*(pt-25.0)+ptc2*(pt-25.0)*(pt-25.0)'
.param pt='temper'
r1 n1 n2 'rsh*l*scale/(w*scale-dw)*(1+pvc1*(abs(v(n2,n1))/l/scale)+pvc2*(v(n2,n1)/l/scale)*(v(n2,n1)/l/scale))*tfac'
.ends rm5s
***********************************     Metal 5 with W/S=0.3/0.13     ***********************************
.subckt rm5w n1 n2 l=length w=width scale=1
.param Rsh = r_rm5w
.param dw = 0
.param pvc1 = 0   pvc2 = 0   ptc1 = 2.709E-03   ptc2 = -3.483E-07
.param tfac='1.0+ptc1*(pt-25.0)+ptc2*(pt-25.0)*(pt-25.0)'
.param pt='temper'
r1 n1 n2 'rsh*l*scale/(w*scale-dw)*(1+pvc1*(abs(v(n2,n1))/l/scale)+pvc2*(v(n2,n1)/l/scale)*(v(n2,n1)/l/scale))*tfac'
.ends rm5w
***********************************     Metal 6 with W/S=0.1/0.5     ***********************************
.subckt rm6l n1 n2 l=length w=width scale=1
.param Rsh = r_rm6l
.param dw = 0
.param pvc1 = 0   pvc2 = 0   ptc1 = 2.709E-03   ptc2 = -3.483E-07
.param tfac='1.0+ptc1*(pt-25.0)+ptc2*(pt-25.0)*(pt-25.0)'
.param pt='temper'
r1 n1 n2 'rsh*l*scale/(w*scale-dw)*(1+pvc1*(abs(v(n2,n1))/l/scale)+pvc2*(v(n2,n1)/l/scale)*(v(n2,n1)/l/scale))*tfac'
.ends rm6l
***********************************     Metal 6 with W/S=0.1/0.1     ***********************************
.subckt rm6s n1 n2 l=length w=width scale=1
.param Rsh = r_rm6s
.param dw = 0
.param pvc1 = 0   pvc2 = 0   ptc1 = 2.709E-03   ptc2 = -3.483E-07
.param tfac='1.0+ptc1*(pt-25.0)+ptc2*(pt-25.0)*(pt-25.0)'
.param pt='temper'
r1 n1 n2 'rsh*l*scale/(w*scale-dw)*(1+pvc1*(abs(v(n2,n1))/l/scale)+pvc2*(v(n2,n1)/l/scale)*(v(n2,n1)/l/scale))*tfac'
.ends rm6s
***********************************     Metal 6 with W/S=0.3/0.13     ***********************************
.subckt rm6w n1 n2 l=length w=width scale=1
.param Rsh = r_rm6w
.param dw = 0
.param pvc1 = 0   pvc2 = 0   ptc1 = 2.709E-03   ptc2 = -3.483E-07
.param tfac='1.0+ptc1*(pt-25.0)+ptc2*(pt-25.0)*(pt-25.0)'
.param pt='temper'
r1 n1 n2 'rsh*l*scale/(w*scale-dw)*(1+pvc1*(abs(v(n2,n1))/l/scale)+pvc2*(v(n2,n1)/l/scale)*(v(n2,n1)/l/scale))*tfac'
.ends rm6w
***********************************     Metal 7 with W/S=0.1/0.5     ***********************************
.subckt rm7l n1 n2 l=length w=width scale=1
.param Rsh = r_rm7l
.param dw = 0
.param pvc1 = 0   pvc2 = 0   ptc1 = 2.709E-03   ptc2 = -3.483E-07
.param tfac='1.0+ptc1*(pt-25.0)+ptc2*(pt-25.0)*(pt-25.0)'
.param pt='temper'
r1 n1 n2 'rsh*l*scale/(w*scale-dw)*(1+pvc1*(abs(v(n2,n1))/l/scale)+pvc2*(v(n2,n1)/l/scale)*(v(n2,n1)/l/scale))*tfac'
.ends rm7l
***********************************     Metal 7 with W/S=0.1/0.1     ***********************************
.subckt rm7s n1 n2 l=length w=width scale=1
.param Rsh = r_rm7s
.param dw = 0
.param pvc1 = 0   pvc2 = 0   ptc1 = 2.709E-03   ptc2 = -3.483E-07
.param tfac='1.0+ptc1*(pt-25.0)+ptc2*(pt-25.0)*(pt-25.0)'
.param pt='temper'
r1 n1 n2 'rsh*l*scale/(w*scale-dw)*(1+pvc1*(abs(v(n2,n1))/l/scale)+pvc2*(v(n2,n1)/l/scale)*(v(n2,n1)/l/scale))*tfac'
.ends rm7s
***********************************     Metal 7 with W/S=0.3/0.13     ***********************************
.subckt rm7w n1 n2 l=length w=width scale=1
.param Rsh = r_rm7w
.param dw = 0
.param pvc1 = 0   pvc2 = 0   ptc1 = 2.709E-03   ptc2 = -3.483E-07
.param tfac='1.0+ptc1*(pt-25.0)+ptc2*(pt-25.0)*(pt-25.0)'
.param pt='temper'
r1 n1 n2 'rsh*l*scale/(w*scale-dw)*(1+pvc1*(abs(v(n2,n1))/l/scale)+pvc2*(v(n2,n1)/l/scale)*(v(n2,n1)/l/scale))*tfac'
.ends rm7w
***********************************     Metal 8 with W/S=0.4/1.5     ***********************************
.subckt rm8l n1 n2 l=length w=width scale=1
.param Rsh = r_rm8l
.param dw = 0
.param pvc1 = 0   pvc2 = 0   ptc1 = 3.625E-03   ptc2 = -1.393E-06
.param tfac='1.0+ptc1*(pt-25.0)+ptc2*(pt-25.0)*(pt-25.0)'
.param pt='temper'
r1 n1 n2 'rsh*l*scale/(w*scale-dw)*(1+pvc1*(abs(v(n2,n1))/l/scale)+pvc2*(v(n2,n1)/l/scale)*(v(n2,n1)/l/scale))*tfac'
.ends rm8l
***********************************     Metal 8 with W/S=0.4/0.4     ***********************************
.subckt rm8s n1 n2 l=length w=width scale=1
.param Rsh = r_rm8s
.param dw = 0
.param pvc1 = 0   pvc2 = 0   ptc1 = 3.625E-03   ptc2 = -1.393E-06
.param tfac='1.0+ptc1*(pt-25.0)+ptc2*(pt-25.0)*(pt-25.0)'
.param pt='temper'
r1 n1 n2 'rsh*l*scale/(w*scale-dw)*(1+pvc1*(abs(v(n2,n1))/l/scale)+pvc2*(v(n2,n1)/l/scale)*(v(n2,n1)/l/scale))*tfac'
.ends rm8s
***********************************     Metal 8 with W/S=1.5/0.4     ***********************************
.subckt rm8w n1 n2 l=length w=width scale=1
.param Rsh = r_rm8w
.param dw = 0
.param pvc1 = 0   pvc2 = 0   ptc1 = 3.625E-03   ptc2 = -1.393E-06
.param tfac='1.0+ptc1*(pt-25.0)+ptc2*(pt-25.0)*(pt-25.0)'
.param pt='temper'
r1 n1 n2 'rsh*l*scale/(w*scale-dw)*(1+pvc1*(abs(v(n2,n1))/l/scale)+pvc2*(v(n2,n1)/l/scale)*(v(n2,n1)/l/scale))*tfac'
.ends rm8w
***********************************     Metal 9 with W/S=0.4/1.5     ***********************************
.subckt rm9l n1 n2 l=length w=width scale=1
.param Rsh = r_rm9l
.param dw = 0
.param pvc1 = 0   pvc2 = 0   ptc1 = 3.625E-03   ptc2 = -1.393E-06
.param tfac='1.0+ptc1*(pt-25.0)+ptc2*(pt-25.0)*(pt-25.0)'
.param pt='temper'
r1 n1 n2 'rsh*l*scale/(w*scale-dw)*(1+pvc1*(abs(v(n2,n1))/l/scale)+pvc2*(v(n2,n1)/l/scale)*(v(n2,n1)/l/scale))*tfac'
.ends rm9l
***********************************     Metal 9 with W/S=0.4/0.4     ***********************************
.subckt rm9s n1 n2 l=length w=width scale=1
.param Rsh = r_rm9s
.param dw = 0
.param pvc1 = 0   pvc2 = 0   ptc1 = 3.625E-03   ptc2 = -1.393E-06
.param tfac='1.0+ptc1*(pt-25.0)+ptc2*(pt-25.0)*(pt-25.0)'
.param pt='temper'
r1 n1 n2 'rsh*l*scale/(w*scale-dw)*(1+pvc1*(abs(v(n2,n1))/l/scale)+pvc2*(v(n2,n1)/l/scale)*(v(n2,n1)/l/scale))*tfac'
.ends rm9s
***********************************     Metal 9 with W/S=1.5/0.4     ***********************************
.subckt rm9w n1 n2 l=length w=width scale=1
.param Rsh = r_rm9w
.param dw = 0
.param pvc1 = 0   pvc2 = 0   ptc1 = 3.625E-03   ptc2 = -1.393E-06
.param tfac='1.0+ptc1*(pt-25.0)+ptc2*(pt-25.0)*(pt-25.0)'
.param pt='temper'
r1 n1 n2 'rsh*l*scale/(w*scale-dw)*(1+pvc1*(abs(v(n2,n1))/l/scale)+pvc2*(v(n2,n1)/l/scale)*(v(n2,n1)/l/scale))*tfac'
.ends rm9w
***********************************     Metal 10 (AL_RDL) with W/S=3/2     ***********************************
.subckt rm10 n1 n2 l=length w=width scale=1
.param Rsh = r_rm10
.param dw = 0
.param pvc1 = 0   pvc2 = 0   ptc1 = 3.890E-03   ptc2 = -1.500E-07
.param tfac='1.0+ptc1*(pt-25.0)+ptc2*(pt-25.0)*(pt-25.0)'
.param pt='temper'
r1 n1 n2 'rsh*l*scale/(w*scale-dw)*(1+pvc1*(abs(v(n2,n1))/l/scale)+pvc2*(v(n2,n1)/l/scale)*(v(n2,n1)/l/scale))*tfac'
.ends rm10
***********************************     Metal x with W/S=0.1/0.5     ***********************************
.subckt rmxl n1 n2 l=length w=width scale=1
.param Rsh = r_rmxl
.param dw = 0
.param pvc1 = 0   pvc2 = 0   ptc1 = 2.709E-03   ptc2 = -3.483E-07
.param tfac='1.0+ptc1*(pt-25.0)+ptc2*(pt-25.0)*(pt-25.0)'
.param pt='temper'
r1 n1 n2 'rsh*l*scale/(w*scale-dw)*(1+pvc1*(abs(v(n2,n1))/l/scale)+pvc2*(v(n2,n1)/l/scale)*(v(n2,n1)/l/scale))*tfac'
.ends rmxl
***********************************     Metal x with W/S=0.1/0.1     ***********************************
.subckt rmxs n1 n2 l=length w=width scale=1
.param Rsh = r_rmxs
.param dw = 0
.param pvc1 = 0   pvc2 = 0   ptc1 = 2.709E-03   ptc2 = -3.483E-07
.param tfac='1.0+ptc1*(pt-25.0)+ptc2*(pt-25.0)*(pt-25.0)'
.param pt='temper'
r1 n1 n2 'rsh*l*scale/(w*scale-dw)*(1+pvc1*(abs(v(n2,n1))/l/scale)+pvc2*(v(n2,n1)/l/scale)*(v(n2,n1)/l/scale))*tfac'
.ends rmxs
***********************************     Metal x with W/S=0.3/0.13     ***********************************
.subckt rmxw n1 n2 l=length w=width scale=1
.param Rsh = r_rmxw
.param dw = 0
.param pvc1 = 0   pvc2 = 0   ptc1 = 2.709E-03   ptc2 = -3.483E-07
.param tfac='1.0+ptc1*(pt-25.0)+ptc2*(pt-25.0)*(pt-25.0)'
.param pt='temper'
r1 n1 n2 'rsh*l*scale/(w*scale-dw)*(1+pvc1*(abs(v(n2,n1))/l/scale)+pvc2*(v(n2,n1)/l/scale)*(v(n2,n1)/l/scale))*tfac'
.ends rmxw
***********************************     Metal z with W/S=0.4/1.5     ***********************************
.subckt rmzl n1 n2 l=length w=width scale=1
.param Rsh = r_rmzl
.param dw = 0
.param pvc1 = 0   pvc2 = 0   ptc1 = 3.625E-03   ptc2 = -1.393E-06
.param tfac='1.0+ptc1*(pt-25.0)+ptc2*(pt-25.0)*(pt-25.0)'
.param pt='temper'
r1 n1 n2 'rsh*l*scale/(w*scale-dw)*(1+pvc1*(abs(v(n2,n1))/l/scale)+pvc2*(v(n2,n1)/l/scale)*(v(n2,n1)/l/scale))*tfac'
.ends rmzl
***********************************     Metal z with W/S=0.4/0.4     ***********************************
.subckt rmzs n1 n2 l=length w=width scale=1
.param Rsh = r_rmzs
.param dw = 0
.param pvc1 = 0   pvc2 = 0   ptc1 = 3.625E-03   ptc2 = -1.393E-06
.param tfac='1.0+ptc1*(pt-25.0)+ptc2*(pt-25.0)*(pt-25.0)'
.param pt='temper'
r1 n1 n2 'rsh*l*scale/(w*scale-dw)*(1+pvc1*(abs(v(n2,n1))/l/scale)+pvc2*(v(n2,n1)/l/scale)*(v(n2,n1)/l/scale))*tfac'
.ends rmzs
***********************************     Metal z with W/S=1.5/0.4     ***********************************
.subckt rmzw n1 n2 l=length w=width scale=1
.param Rsh = r_rmzw
.param dw = 0
.param pvc1 = 0   pvc2 = 0   ptc1 = 3.625E-03   ptc2 = -1.393E-06
.param tfac='1.0+ptc1*(pt-25.0)+ptc2*(pt-25.0)*(pt-25.0)'
.param pt='temper'
r1 n1 n2 'rsh*l*scale/(w*scale-dw)*(1+pvc1*(abs(v(n2,n1))/l/scale)+pvc2*(v(n2,n1)/l/scale)*(v(n2,n1)/l/scale))*tfac'
.ends rmzw
.ENDL RES

***************************     CORNER_LIB OF TYPICAL MODEL     ***************************
.LIB TT_MOS_CAP
.param toxm_var=20.0  ndep0_var=5.1  pndep_var=1.0E-13 fac_var=1.0 rs0_var=8.0 dxl_var=0 dxw_var=0
.lib 'CLN65GPLUS_1d8_lk_v1d0p1.l' MOS_CAP
.ENDL TT_MOS_CAP

***************************     CORNER_LIB OF SLOW MODEL     ***************************
.LIB SS_MOS_CAP
.param toxm_var=20.9  ndep0_var=4.05  pndep_var=0.5E-13 fac_var=0.4  rs0_var=250 dxl_var=5E-9 dxw_var=-8E-9
.lib 'CLN65GPLUS_1d8_lk_v1d0p1.l' MOS_CAP
.ENDL SS_MOS_CAP

***************************     CORNER_LIB OF FAST MODEL     ***************************
.LIB FF_MOS_CAP
.param toxm_var=19.1  ndep0_var=6.25   pndep_var=1.5E-13 fac_var=2.5 rs0_var=1.0 dxl_var=-5E-9 dxw_var=8E-9
.lib 'CLN65GPLUS_1d8_lk_v1d0p1.l' MOS_CAP
.ENDL FF_MOS_CAP

**************************************************************************
*                                                                        *
*              NMOS in N-Well varactor MODEL                             *
*                                                                        *
**************************************************************************
.LIB MOS_CAP
.subckt nmoscap ng nds lr=5e-6 wr=5e-6 scale=1.0
.param toxa='toxm_var*0.88+0.5'
.param weff='wr*scale+0.1E-8+dxw_var'
.param leff='lr*scale-6.5E-8+1.0E-14/wr/scale+dxl_var'
.param rvalue='rs0_var*(1.0-3.0E-7/wr/scale-2.0E-7/lr/scale)'
.param eff='wr*scale*lr*scale*(1.0+1.6e-3*(temper-25))*9393.931/toxa/toxa/toxa*5.6*fac_var'
.param phit='(temper+273.0)/11606.0'
.param as='sqrt(ndep0_var*(1.0+1.0E-8/lr/scale+1E-8/wr/scale+pndep_var/wr/scale/lr/scale)*3.8850499/(temper+273.0))*toxa/3.399936'
.param as2='as*as'
.param a0='1.0/(1.0+0.707106781186547*as)'
.param vfb='(0.04+1.3E-8/wr/scale+8.0E-9/lr/scale-1.5E-14/lr/scale/wr/scale)*(1.0+(temper-25.0)*7.5E-3)'
.param xgc1(x)='0.5*(1.0-(x+vfb)/(0.01*phit+sqrt((x+vfb)*(x+vfb)+1.0E-4*phit*phit)))'
.param et1(x)='1.0-xgc1(x)+as*(xgc1(x)*(1.0+a0*(1.0-1.0/(1.0-a0*xgc1(x)*(vfb+x)/phit)))-a0)/(0.5*as+sqrt(0.25*as2-(xgc1(x)*(1.0+a0*(1.0-1.0/(1.0-a0*xgc1(x)*(vfb+x)/phit)))-a0)*(x+vfb)/phit))'
.param zm(x)='(1.0-(1.0-(x+vfb)/phit*et1(x)/as2)*et1(x))*(x+vfb)/phit'
.param cm(x)='as2-2.0*(x+vfb)/phit*et1(x)'
.param vm1(x)='(as2-2.0-(x+vfb)*et1(x)/phit)*et1(x)-as2'
.param tau(x)='((et1(x)-1.0)*(x+vfb)/phit+log(1.0+zm(x)))/(1.0E-6+(x+vfb)*(x+vfb)/phit/phit)'
.param xm1(x)='et1(x)+as2*(1.0+zm(x))*tau(x)/(vm1(x)+(0.5*cm(x)*cm(x)-as2-as2*zm(x))*tau(x)/vm1(x))'
cg ng n1 '0.3399936/toxa*weff*leff*(1.0-2.0/(as2/xm1(v(ng,n1))+2.0-as2+(v(ng,n1)+vfb)/phit*xm1(v(ng,n1))))+1.39E-10*(2.0*weff+2.0*leff)'
gdf1 ng  n1  cur='eff*(1.3E4*(pwr(0.5*(sqrt(v(ng,n1)*v(ng,n1)+1.0E-4)+v(ng,n1)),4.0)-pwr(5.0E-3,4.0))-150*(pwr(0.5*(sqrt(v(ng,n1)*v(ng,n1)+1.0E-4)-v(ng,n1)),1.8)-pwr(5.0E-3,1.8))+150.0*v(ng,n1))'
rs   n1  nds rvalue
.ends nmoscap
.ENDL MOS_CAP

***************************     CORNER_LIB OF TYPICAL MODEL     ***************************
.LIB TT_MOS_CAP_18
.param
+Cgmin_Var18= 1        dCg_Var18= 1         dxL_Var18= 0            dxW_Var18= 0
+fac_var18  = 1
.lib 'CLN65GPLUS_1d8_lk_v1d0p1.l' MOS_CAP_18
.ENDL TT_MOS_CAP_18

***************************     CORNER_LIB OF SLOW MODEL     ***************************
.LIB SS_MOS_CAP_18
.param
+Cgmin_Var18= 0.9      dCg_Var18= 0.9412     dxL_Var18= 8.0E-09      dxW_Var18= -1.2E-08
+fac_var18  = 0.3
.lib 'CLN65GPLUS_1d8_lk_v1d0p1.l' MOS_CAP_18
.ENDL SS_MOS_CAP_18

***************************     CORNER_LIB OF FAST MODEL     ***************************
.LIB FF_MOS_CAP_18
.param
+Cgmin_Var18= 1.1      dCg_Var18= 1.059     dxL_Var18= -8.0E-09     dxW_Var18= 1.2E-08
+fac_var18  = 3.3
.lib 'CLN65GPLUS_1d8_lk_v1d0p1.l' MOS_CAP_18
.ENDL FF_MOS_CAP_18

**************************************************************************
*                                                                        *
*              1.8V IO NMOS in N-Well varactor MODEL                     *
*                                                                        *
**************************************************************************
.LIB MOS_CAP_18
*
.subckt nmoscap_18 ng nds lr=1E-6 wr=1E-6 scale=1
.param XL=5.5E-08
.param XW=-7.0E-09
.param area='(lr*scale-XL+dxL_Var18)*(wr*scale-XW+dxW_Var18)'
.param Cgmin='1.650E-10*Cgmin_Var18*2*(wr*scale-XW+dxW_Var18)+3.79E-10*Cgmin_Var18*2*(lr*scale-XL+dxL_Var18)+1.146E-03*Cgmin_Var18*area'
.param dCg='-4.9E-11*dCg_Var18*2*(wr*scale-XW+dxW_Var18)+6.0E-12*dCg_Var18*2*(lr*scale-XL+dxL_Var18)+4.418E-03*dCg_Var18*area'
.param dVgs='-0.088-2.5E-04*(temper-25)'
.param Vgnorm='0.43+6.0E-04*(temper-25)'

cg ng nds 'Cgmin+dCg*(1.0+tanh((v(ng,nds)-dVgs)/Vgnorm))'

.ends nmoscap_18

.ENDL MOS_CAP_18

